N#Cc1ccccc1
     RDKit          3D

 13 13  0  0  0  0  0  0  0  0999 V2000
    3.6643   -0.0570    0.0328 N   0  0  0  0  0  0  0  0  0  0  0  0
    2.5072   -0.0390    0.0224 C   0  0  0  0  0  0  0  0  0  0  0  0
    1.0680   -0.0166    0.0095 C   0  0  0  0  0  0  0  0  0  0  0  0
    0.3465   -1.2184   -0.0037 C   0  0  0  0  0  0  0  0  0  0  0  0
   -1.0522   -1.1949   -0.0162 C   0  0  0  0  0  0  0  0  0  0  0  0
   -1.7324    0.0269   -0.0155 C   0  0  0  0  0  0  0  0  0  0  0  0
   -1.0147    1.2271   -0.0023 C   0  0  0  0  0  0  0  0  0  0  0  0
    0.3841    1.2071    0.0102 C   0  0  0  0  0  0  0  0  0  0  0  0
    0.8639   -2.1703   -0.0043 H   0  0  0  0  0  0  0  0  0  0  0  0
   -1.6086   -2.1233   -0.0264 H   0  0  0  0  0  0  0  0  0  0  0  0
   -2.8146    0.0438   -0.0252 H   0  0  0  0  0  0  0  0  0  0  0  0
   -1.5420    2.1723   -0.0018 H   0  0  0  0  0  0  0  0  0  0  0  0
    0.9307    2.1424    0.0204 H   0  0  0  0  0  0  0  0  0  0  0  0
  1  2  3  0
  2  3  1  0
  3  8  2  0
  3  4  1  0
  4  5  2  0
  5  6  1  0
  6  7  2  0
  7  8  1  0
  4  9  1  0
  5 10  1  0
  6 11  1  0
  7 12  1  0
  8 13  1  0
M  END
$$$$
