NNc1ccccc1
     RDKit          3D

 16 16  0  0  0  0  0  0  0  0999 V2000
    2.7248    0.6337   -0.1250 N   0  0  0  0  0  0  0  0  0  0  0  0
    1.8200   -0.4361   -0.0535 N   0  0  0  0  0  0  0  0  0  0  0  0
    0.4024   -0.2153   -0.0077 C   0  0  0  0  0  0  0  0  0  0  0  0
   -0.4699   -1.3136    0.0636 C   0  0  0  0  0  0  0  0  0  0  0  0
   -1.8535   -1.1158    0.1089 C   0  0  0  0  0  0  0  0  0  0  0  0
   -2.3771    0.1793    0.0835 C   0  0  0  0  0  0  0  0  0  0  0  0
   -1.5177    1.2788    0.0127 C   0  0  0  0  0  0  0  0  0  0  0  0
   -0.1332    1.0857   -0.0329 C   0  0  0  0  0  0  0  0  0  0  0  0
    3.3655    0.5506    0.6965 H   0  0  0  0  0  0  0  0  0  0  0  0
    3.3021    0.4920   -0.9845 H   0  0  0  0  0  0  0  0  0  0  0  0
    2.1920   -1.4135   -0.0334 H   0  0  0  0  0  0  0  0  0  0  0  0
   -0.0773   -2.3225    0.0840 H   0  0  0  0  0  0  0  0  0  0  0  0
   -2.5198   -1.9670    0.1638 H   0  0  0  0  0  0  0  0  0  0  0  0
   -3.4482    0.3309    0.1186 H   0  0  0  0  0  0  0  0  0  0  0  0
   -1.9245    2.2816   -0.0070 H   0  0  0  0  0  0  0  0  0  0  0  0
    0.5144    1.9511   -0.0875 H   0  0  0  0  0  0  0  0  0  0  0  0
  1  2  1  0
  2  3  1  0
  3  8  2  0
  3  4  1  0
  4  5  2  0
  5  6  1  0
  6  7  2  0
  7  8  1  0
  1  9  1  0
  1 10  1  0
  2 11  1  0
  4 12  1  0
  5 13  1  0
  6 14  1  0
  7 15  1  0
  8 16  1  0
M  END
$$$$
