OCc1cccnc1
     RDKit          3D

 15 15  0  0  0  0  0  0  0  0999 V2000
    2.4554    0.9256    0.3922 O   0  0  0  0  0  0  0  0  0  0  0  0
    1.8885   -0.1053   -0.3693 C   0  0  0  0  0  0  0  0  0  0  0  0
    0.4037   -0.1711   -0.1354 C   0  0  0  0  0  0  0  0  0  0  0  0
   -0.4150    0.9160   -0.4734 C   0  0  0  0  0  0  0  0  0  0  0  0
   -1.7923    0.8472   -0.2556 C   0  0  0  0  0  0  0  0  0  0  0  0
   -2.3399   -0.3114    0.2985 C   0  0  0  0  0  0  0  0  0  0  0  0
   -1.5348   -1.3586    0.6202 N   0  0  0  0  0  0  0  0  0  0  0  0
   -0.1904   -1.3160    0.4178 C   0  0  0  0  0  0  0  0  0  0  0  0
    2.4759    0.6046    1.3317 H   0  0  0  0  0  0  0  0  0  0  0  0
    2.3819   -1.0740   -0.1260 H   0  0  0  0  0  0  0  0  0  0  0  0
    2.0758    0.0987   -1.4447 H   0  0  0  0  0  0  0  0  0  0  0  0
    0.0135    1.8125   -0.9043 H   0  0  0  0  0  0  0  0  0  0  0  0
   -2.4292    1.6833   -0.5141 H   0  0  0  0  0  0  0  0  0  0  0  0
   -3.4054   -0.3785    0.4727 H   0  0  0  0  0  0  0  0  0  0  0  0
    0.4122   -2.1730    0.6895 H   0  0  0  0  0  0  0  0  0  0  0  0
  1  2  1  0
  2  3  1  0
  3  4  2  0
  3  8  1  0
  4  5  1  0
  5  6  2  0
  6  7  1  0
  7  8  2  0
  1  9  1  0
  2 10  1  0
  2 11  1  0
  4 12  1  0
  5 13  1  0
  6 14  1  0
  8 15  1  0
M  END
$$$$
