OCc1ccccc1
     RDKit          3D

 16 16  0  0  0  0  0  0  0  0999 V2000
    2.5729   -0.0332   -1.1201 O   0  0  0  0  0  0  0  0  0  0  0  0
    2.0207    0.3578    0.1080 C   0  0  0  0  0  0  0  0  0  0  0  0
    0.5277    0.1683    0.0902 C   0  0  0  0  0  0  0  0  0  0  0  0
   -0.3359    1.2758    0.1508 C   0  0  0  0  0  0  0  0  0  0  0  0
   -1.7220    1.0897    0.1376 C   0  0  0  0  0  0  0  0  0  0  0  0
   -2.2554   -0.2000    0.0664 C   0  0  0  0  0  0  0  0  0  0  0  0
   -1.4037   -1.3064    0.0093 C   0  0  0  0  0  0  0  0  0  0  0  0
   -0.0171   -1.1251    0.0221 C   0  0  0  0  0  0  0  0  0  0  0  0
    2.7068   -1.0159   -1.0765 H   0  0  0  0  0  0  0  0  0  0  0  0
    2.4651   -0.2244    0.9477 H   0  0  0  0  0  0  0  0  0  0  0  0
    2.2781    1.4246    0.2804 H   0  0  0  0  0  0  0  0  0  0  0  0
    0.0610    2.2818    0.2057 H   0  0  0  0  0  0  0  0  0  0  0  0
   -2.3828    1.9458    0.1827 H   0  0  0  0  0  0  0  0  0  0  0  0
   -3.3284   -0.3420    0.0566 H   0  0  0  0  0  0  0  0  0  0  0  0
   -1.8179   -2.3050   -0.0435 H   0  0  0  0  0  0  0  0  0  0  0  0
    0.6310   -1.9918   -0.0175 H   0  0  0  0  0  0  0  0  0  0  0  0
  1  2  1  0
  2  3  1  0
  3  8  2  0
  3  4  1  0
  4  5  2  0
  5  6  1  0
  6  7  2  0
  7  8  1  0
  1  9  1  0
  2 10  1  0
  2 11  1  0
  4 12  1  0
  5 13  1  0
  6 14  1  0
  7 15  1  0
  8 16  1  0
M  END
$$$$
