ClCc1ccccc1
     RDKit          3D

 15 15  0  0  0  0  0  0  0  0999 V2000
    2.5946    0.7494   -1.8345 Cl  0  0  0  0  0  0  0  0  0  0  0  0
    2.1754   -0.1512   -0.3550 C   0  0  0  0  0  0  0  0  0  0  0  0
    0.6975   -0.0672   -0.0963 C   0  0  0  0  0  0  0  0  0  0  0  0
   -0.1079   -1.2169   -0.1663 C   0  0  0  0  0  0  0  0  0  0  0  0
   -1.4816   -1.1305    0.0820 C   0  0  0  0  0  0  0  0  0  0  0  0
   -2.0597    0.1005    0.4041 C   0  0  0  0  0  0  0  0  0  0  0  0
   -1.2650    1.2475    0.4796 C   0  0  0  0  0  0  0  0  0  0  0  0
    0.1089    1.1658    0.2321 C   0  0  0  0  0  0  0  0  0  0  0  0
    2.7310    0.2774    0.5056 H   0  0  0  0  0  0  0  0  0  0  0  0
    2.5019   -1.2050   -0.4852 H   0  0  0  0  0  0  0  0  0  0  0  0
    0.3244   -2.1782   -0.4149 H   0  0  0  0  0  0  0  0  0  0  0  0
   -2.0981   -2.0183    0.0249 H   0  0  0  0  0  0  0  0  0  0  0  0
   -3.1229    0.1652    0.5961 H   0  0  0  0  0  0  0  0  0  0  0  0
   -1.7133    2.2000    0.7310 H   0  0  0  0  0  0  0  0  0  0  0  0
    0.7146    2.0614    0.2968 H   0  0  0  0  0  0  0  0  0  0  0  0
  1  2  1  0
  2  3  1  0
  3  8  2  0
  3  4  1  0
  4  5  2  0
  5  6  1  0
  6  7  2  0
  7  8  1  0
  2  9  1  0
  2 10  1  0
  4 11  1  0
  5 12  1  0
  6 13  1  0
  7 14  1  0
  8 15  1  0
M  END
$$$$
