O[NH]c1ccccc1
     RDKit          3D

 15 15  0  0  0  0  0  0  0  0999 V2000
    2.9442   -0.4400    0.4574 O   0  0  0  0  0  0  0  0  0  0  0  0
    2.0017    0.5333    0.4315 N   0  0  0  0  0  0  0  0  0  0  0  0
    0.6214    0.2295    0.1857 C   0  0  0  0  0  0  0  0  0  0  0  0
    0.2030   -1.0928   -0.0460 C   0  0  0  0  0  0  0  0  0  0  0  0
   -1.1465   -1.3726   -0.2846 C   0  0  0  0  0  0  0  0  0  0  0  0
   -2.0860   -0.3381   -0.2938 C   0  0  0  0  0  0  0  0  0  0  0  0
   -1.6777    0.9784   -0.0643 C   0  0  0  0  0  0  0  0  0  0  0  0
   -0.3293    1.2625    0.1746 C   0  0  0  0  0  0  0  0  0  0  0  0
    3.2832   -0.4899   -0.4728 H   0  0  0  0  0  0  0  0  0  0  0  0
    2.2945    1.5193    0.6164 H   0  0  0  0  0  0  0  0  0  0  0  0
    0.9163   -1.9067   -0.0425 H   0  0  0  0  0  0  0  0  0  0  0  0
   -1.4639   -2.3921   -0.4624 H   0  0  0  0  0  0  0  0  0  0  0  0
   -3.1298   -0.5566   -0.4786 H   0  0  0  0  0  0  0  0  0  0  0  0
   -2.4059    1.7792   -0.0716 H   0  0  0  0  0  0  0  0  0  0  0  0
   -0.0253    2.2867    0.3508 H   0  0  0  0  0  0  0  0  0  0  0  0
  1  2  1  0
  2  3  1  0
  3  8  2  0
  3  4  1  0
  4  5  2  0
  5  6  1  0
  6  7  2  0
  7  8  1  0
  1  9  1  0
  2 10  1  0
  4 11  1  0
  5 12  1  0
  6 13  1  0
  7 14  1  0
  8 15  1  0
M  END
$$$$
