Cc1cc(O)no1
     RDKit          3D

 12 12  0  0  0  0  0  0  0  0999 V2000
   -2.0149    0.0628    0.0126 C   0  0  0  0  0  0  0  0  0  0  0  0
   -0.5732   -0.3082   -0.0833 C   0  0  0  0  0  0  0  0  0  0  0  0
    0.5046    0.5228    0.1403 C   0  0  0  0  0  0  0  0  0  0  0  0
    1.5815   -0.3077   -0.0787 C   0  0  0  0  0  0  0  0  0  0  0  0
    2.9203    0.0545    0.0205 O   0  0  0  0  0  0  0  0  0  0  0  0
    1.1656   -1.5438   -0.4088 N   0  0  0  0  0  0  0  0  0  0  0  0
   -0.1358   -1.5059   -0.4014 O   0  0  0  0  0  0  0  0  0  0  0  0
   -2.5088   -0.5691    0.7796 H   0  0  0  0  0  0  0  0  0  0  0  0
   -2.5052   -0.1034   -0.9689 H   0  0  0  0  0  0  0  0  0  0  0  0
   -2.1252    1.1307    0.2968 H   0  0  0  0  0  0  0  0  0  0  0  0
    0.5059    1.5684    0.4187 H   0  0  0  0  0  0  0  0  0  0  0  0
    3.1851    0.9992    0.2726 H   0  0  0  0  0  0  0  0  0  0  0  0
  1  2  1  0
  2  3  2  0
  2  7  1  0
  3  4  1  0
  4  6  2  0
  4  5  1  0
  6  7  1  0
  1  8  1  0
  1  9  1  0
  1 10  1  0
  3 11  1  0
  5 12  1  0
M  END
$$$$
