CN1C2CCC1CC(OC(C(CO)c3ccccc3)=O)C2
     RDKit          3D

 44 46  0  0  1  0  0  0  0  0999 V2000
    4.2835   -1.6478    0.9842 C   0  0  0  0  0  0  0  0  0  0  0  0
    3.1361   -0.9254    0.4047 N   0  0  0  0  0  0  0  0  0  0  0  0
    3.3469   -0.5834   -1.0052 C   0  0  2  0  0  0  0  0  0  0  0  0
    4.2245    0.6771   -1.0183 C   0  0  0  0  0  0  0  0  0  0  0  0
    3.9482    1.3376    0.3295 C   0  0  0  0  0  0  0  0  0  0  0  0
    2.9444    0.3943    1.0130 C   0  0  1  0  0  0  0  0  0  0  0  0
    1.4891    0.8177    0.7079 C   0  0  0  0  0  0  0  0  0  0  0  0
    1.2070    0.8257   -0.8245 C   0  0  2  0  0  0  0  0  0  0  0  0
   -0.1970    0.8298   -1.1044 O   0  0  0  0  0  0  0  0  0  0  0  0
   -1.0951   -0.2044   -0.7992 C   0  0  0  0  0  0  0  0  0  0  0  0
   -2.5467   -0.0322   -1.1516 C   0  0  1  0  0  0  0  0  0  0  0  0
   -3.0551   -1.2098   -2.0017 C   0  0  0  0  0  0  0  0  0  0  0  0
   -4.3551   -0.9572   -2.4661 O   0  0  0  0  0  0  0  0  0  0  0  0
   -3.3769    0.1792    0.1005 C   0  0  0  0  0  0  0  0  0  0  0  0
   -4.0070    1.4182    0.3222 C   0  0  0  0  0  0  0  0  0  0  0  0
   -4.7787    1.6244    1.4709 C   0  0  0  0  0  0  0  0  0  0  0  0
   -4.9259    0.6005    2.4109 C   0  0  0  0  0  0  0  0  0  0  0  0
   -4.2959   -0.6307    2.2073 C   0  0  0  0  0  0  0  0  0  0  0  0
   -3.5298   -0.8453    1.0584 C   0  0  0  0  0  0  0  0  0  0  0  0
   -0.7038   -1.2585   -0.2252 O   0  0  0  0  0  0  0  0  0  0  0  0
    1.9517   -0.2957   -1.6083 C   0  0  0  0  0  0  0  0  0  0  0  0
    5.2193   -1.0510    0.9466 H   0  0  0  0  0  0  0  0  0  0  0  0
    4.0650   -1.9054    2.0418 H   0  0  0  0  0  0  0  0  0  0  0  0
    4.4469   -2.6008    0.4372 H   0  0  0  0  0  0  0  0  0  0  0  0
    3.8268   -1.4151   -1.5688 H   0  0  0  0  0  0  0  0  0  0  0  0
    3.9835    1.3550   -1.8653 H   0  0  0  0  0  0  0  0  0  0  0  0
    5.2963    0.3893   -1.0892 H   0  0  0  0  0  0  0  0  0  0  0  0
    3.5478    2.3682    0.2068 H   0  0  0  0  0  0  0  0  0  0  0  0
    4.8826    1.3923    0.9273 H   0  0  0  0  0  0  0  0  0  0  0  0
    3.0983    0.3711    2.1154 H   0  0  0  0  0  0  0  0  0  0  0  0
    1.2906    1.8285    1.1291 H   0  0  0  0  0  0  0  0  0  0  0  0
    0.8089    0.1102    1.2288 H   0  0  0  0  0  0  0  0  0  0  0  0
    1.5986    1.7906   -1.2104 H   0  0  0  0  0  0  0  0  0  0  0  0
   -2.6187    0.8739   -1.7940 H   0  0  0  0  0  0  0  0  0  0  0  0
   -3.0180   -2.1690   -1.4364 H   0  0  0  0  0  0  0  0  0  0  0  0
   -2.3937   -1.3290   -2.8860 H   0  0  0  0  0  0  0  0  0  0  0  0
   -4.9757   -1.2255   -1.7417 H   0  0  0  0  0  0  0  0  0  0  0  0
   -3.9033    2.2270   -0.3909 H   0  0  0  0  0  0  0  0  0  0  0  0
   -5.2605    2.5806    1.6326 H   0  0  0  0  0  0  0  0  0  0  0  0
   -5.5198    0.7645    3.3006 H   0  0  0  0  0  0  0  0  0  0  0  0
   -4.4079   -1.4222    2.9391 H   0  0  0  0  0  0  0  0  0  0  0  0
   -3.0546   -1.8081    0.9206 H   0  0  0  0  0  0  0  0  0  0  0  0
    2.0525    0.0000   -2.6740 H   0  0  0  0  0  0  0  0  0  0  0  0
    1.3706   -1.2391   -1.5879 H   0  0  0  0  0  0  0  0  0  0  0  0
  1  2  1  0
  2  6  1  0
  2  3  1  0
  3  4  1  0
  3 21  1  0
  4  5  1  0
  5  6  1  0
  6  7  1  0
  7  8  1  0
  8 21  1  0
  8  9  1  0
  9 10  1  0
 10 11  1  0
 10 20  2  0
 11 14  1  0
 11 12  1  0
 12 13  1  0
 14 19  1  0
 14 15  2  0
 15 16  1  0
 16 17  2  0
 17 18  1  0
 18 19  2  0
  1 22  1  0
  1 23  1  0
  1 24  1  0
  3 25  1  6
  4 26  1  0
  4 27  1  0
  5 28  1  0
  5 29  1  0
  6 30  1  1
  7 31  1  0
  7 32  1  0
  8 33  1  6
 11 34  1  6
 12 35  1  0
 12 36  1  0
 13 37  1  0
 15 38  1  0
 16 39  1  0
 17 40  1  0
 18 41  1  0
 19 42  1  0
 21 43  1  0
 21 44  1  0
M  END
$$$$
