OC(Cc1ccccc1)=O
     RDKit          3D

 18 18  0  0  0  0  0  0  0  0999 V2000
    3.0806    0.4151   -0.9524 O   0  0  0  0  0  0  0  0  0  0  0  0
    2.5083   -0.1791    0.1679 C   0  0  0  0  0  0  0  0  0  0  0  0
    1.3340   -1.0972    0.0080 C   0  0  0  0  0  0  0  0  0  0  0  0
   -0.0107   -0.3990   -0.0134 C   0  0  0  0  0  0  0  0  0  0  0  0
   -0.1610    0.9966    0.1413 C   0  0  0  0  0  0  0  0  0  0  0  0
   -1.4326    1.5782    0.1138 C   0  0  0  0  0  0  0  0  0  0  0  0
   -2.5654    0.7819   -0.0662 C   0  0  0  0  0  0  0  0  0  0  0  0
   -2.4299   -0.5991   -0.2188 C   0  0  0  0  0  0  0  0  0  0  0  0
   -1.1616   -1.1865   -0.1922 C   0  0  0  0  0  0  0  0  0  0  0  0
    2.9528    0.0838    1.3174 O   0  0  0  0  0  0  0  0  0  0  0  0
    3.8636    1.0510   -0.8599 H   0  0  0  0  0  0  0  0  0  0  0  0
    1.3407   -1.8381    0.8368 H   0  0  0  0  0  0  0  0  0  0  0  0
    1.4594   -1.6598   -0.9422 H   0  0  0  0  0  0  0  0  0  0  0  0
    0.6935    1.6440    0.2841 H   0  0  0  0  0  0  0  0  0  0  0  0
   -1.5396    2.6488    0.2327 H   0  0  0  0  0  0  0  0  0  0  0  0
   -3.5480    1.2351   -0.0869 H   0  0  0  0  0  0  0  0  0  0  0  0
   -3.3085   -1.2159   -0.3577 H   0  0  0  0  0  0  0  0  0  0  0  0
   -1.0753   -2.2598   -0.3117 H   0  0  0  0  0  0  0  0  0  0  0  0
  1  2  1  0
  2  3  1  0
  2 10  2  0
  3  4  1  0
  4  9  2  0
  4  5  1  0
  5  6  2  0
  6  7  1  0
  7  8  2  0
  8  9  1  0
  1 11  1  0
  3 12  1  0
  3 13  1  0
  5 14  1  0
  6 15  1  0
  7 16  1  0
  8 17  1  0
  9 18  1  0
M  END
$$$$
