O=C(Nc(cc1)ccc1O)C
     RDKit          3D

 20 20  0  0  0  0  0  0  0  0999 V2000
    3.4574    0.1770   -1.5902 O   0  0  0  0  0  0  0  0  0  0  0  0
    2.5262    0.1795   -0.7418 C   0  0  0  0  0  0  0  0  0  0  0  0
    1.2034    0.5568   -1.1567 N   0  0  0  0  0  0  0  0  0  0  0  0
    0.0028    0.2526   -0.4288 C   0  0  0  0  0  0  0  0  0  0  0  0
   -0.1867   -1.0042    0.1719 C   0  0  0  0  0  0  0  0  0  0  0  0
   -1.3747   -1.2888    0.8522 C   0  0  0  0  0  0  0  0  0  0  0  0
   -1.0299    1.2003   -0.3745 C   0  0  0  0  0  0  0  0  0  0  0  0
   -2.2172    0.9146    0.3066 C   0  0  0  0  0  0  0  0  0  0  0  0
   -2.3909   -0.3308    0.9251 C   0  0  0  0  0  0  0  0  0  0  0  0
   -3.5686   -0.6272    1.6075 O   0  0  0  0  0  0  0  0  0  0  0  0
    2.8416   -0.1854    0.6775 C   0  0  0  0  0  0  0  0  0  0  0  0
    1.1180    1.1429   -2.0179 H   0  0  0  0  0  0  0  0  0  0  0  0
    0.5713   -1.7716    0.0948 H   0  0  0  0  0  0  0  0  0  0  0  0
   -1.5097   -2.2582    1.3149 H   0  0  0  0  0  0  0  0  0  0  0  0
   -0.9085    2.1649   -0.8513 H   0  0  0  0  0  0  0  0  0  0  0  0
   -3.0013    1.6597    0.3508 H   0  0  0  0  0  0  0  0  0  0  0  0
   -4.3239    0.0448    1.6766 H   0  0  0  0  0  0  0  0  0  0  0  0
    3.8580    0.1755    0.9417 H   0  0  0  0  0  0  0  0  0  0  0  0
    2.1178    0.2855    1.3748 H   0  0  0  0  0  0  0  0  0  0  0  0
    2.8148   -1.2879    0.7976 H   0  0  0  0  0  0  0  0  0  0  0  0
  1  2  2  0
  2 11  1  0
  2  3  1  0
  3  4  1  0
  4  5  2  0
  4  7  1  0
  5  6  1  0
  6  9  2  0
  7  8  2  0
  8  9  1  0
  9 10  1  0
  3 12  1  0
  5 13  1  0
  6 14  1  0
  7 15  1  0
  8 16  1  0
 10 17  1  0
 11 18  1  0
 11 19  1  0
 11 20  1  0
M  END
$$$$
