c1(CCc2ccccc2)ccccc1
     RDKit          3D

 28 29  0  0  0  0  0  0  0  0999 V2000
   -1.9100   -0.2095    0.1054 C   0  0  0  0  0  0  0  0  0  0  0  0
   -0.4798   -0.1495    0.5707 C   0  0  0  0  0  0  0  0  0  0  0  0
    0.4553    0.1651   -0.6023 C   0  0  0  0  0  0  0  0  0  0  0  0
    1.8927    0.2058   -0.1518 C   0  0  0  0  0  0  0  0  0  0  0  0
    2.7908   -0.8041   -0.5383 C   0  0  0  0  0  0  0  0  0  0  0  0
    4.1246   -0.7587   -0.1202 C   0  0  0  0  0  0  0  0  0  0  0  0
    4.5723    0.2944    0.6821 C   0  0  0  0  0  0  0  0  0  0  0  0
    3.6873    1.3050    1.0669 C   0  0  0  0  0  0  0  0  0  0  0  0
    2.3528    1.2637    0.6515 C   0  0  0  0  0  0  0  0  0  0  0  0
   -2.6931    0.9565    0.0704 C   0  0  0  0  0  0  0  0  0  0  0  0
   -4.0116    0.9055   -0.3929 C   0  0  0  0  0  0  0  0  0  0  0  0
   -4.5532   -0.3055   -0.8329 C   0  0  0  0  0  0  0  0  0  0  0  0
   -3.7758   -1.4669   -0.8142 C   0  0  0  0  0  0  0  0  0  0  0  0
   -2.4569   -1.4203   -0.3516 C   0  0  0  0  0  0  0  0  0  0  0  0
   -0.3772    0.6280    1.3592 H   0  0  0  0  0  0  0  0  0  0  0  0
   -0.1908   -1.1222    1.0270 H   0  0  0  0  0  0  0  0  0  0  0  0
    0.3200   -0.6086   -1.3903 H   0  0  0  0  0  0  0  0  0  0  0  0
    0.1862    1.1467   -1.0506 H   0  0  0  0  0  0  0  0  0  0  0  0
    2.4595   -1.6281   -1.1579 H   0  0  0  0  0  0  0  0  0  0  0  0
    4.8114   -1.5403   -0.4183 H   0  0  0  0  0  0  0  0  0  0  0  0
    5.6050    0.3278    1.0044 H   0  0  0  0  0  0  0  0  0  0  0  0
    4.0357    2.1215    1.6860 H   0  0  0  0  0  0  0  0  0  0  0  0
    1.6789    2.0564    0.9522 H   0  0  0  0  0  0  0  0  0  0  0  0
   -2.2822    1.9029    0.3999 H   0  0  0  0  0  0  0  0  0  0  0  0
   -4.6123    1.8055   -0.4141 H   0  0  0  0  0  0  0  0  0  0  0  0
   -5.5733   -0.3431   -1.1924 H   0  0  0  0  0  0  0  0  0  0  0  0
   -4.1941   -2.4028   -1.1614 H   0  0  0  0  0  0  0  0  0  0  0  0
   -1.8621   -2.3254   -0.3510 H   0  0  0  0  0  0  0  0  0  0  0  0
  1  2  1  0
  1 14  1  0
  1 10  2  0
  2  3  1  0
  3  4  1  0
  4  9  1  0
  4  5  2  0
  5  6  1  0
  6  7  2  0
  7  8  1  0
  8  9  2  0
 10 11  1  0
 11 12  2  0
 12 13  1  0
 13 14  2  0
  2 15  1  0
  2 16  1  0
  3 17  1  0
  3 18  1  0
  5 19  1  0
  6 20  1  0
  7 21  1  0
  8 22  1  0
  9 23  1  0
 10 24  1  0
 11 25  1  0
 12 26  1  0
 13 27  1  0
 14 28  1  0
M  END
$$$$
