CC(Nc1ccc(Br)cc1)=O
     RDKit          3D

 19 19  0  0  0  0  0  0  0  0999 V2000
   -3.5688    0.0028    0.1580 C   0  0  0  0  0  0  0  0  0  0  0  0
   -2.1340    0.3655    0.3691 C   0  0  0  0  0  0  0  0  0  0  0  0
   -1.0973   -0.5965    0.1154 N   0  0  0  0  0  0  0  0  0  0  0  0
    0.3049   -0.2788    0.0791 C   0  0  0  0  0  0  0  0  0  0  0  0
    0.7671    0.9517   -0.4242 C   0  0  0  0  0  0  0  0  0  0  0  0
    2.1379    1.2250   -0.4704 C   0  0  0  0  0  0  0  0  0  0  0  0
    3.0593    0.2708   -0.0286 C   0  0  0  0  0  0  0  0  0  0  0  0
    4.9308    0.6459   -0.0950 Br  0  0  0  0  0  0  0  0  0  0  0  0
    2.6090   -0.9625    0.4517 C   0  0  0  0  0  0  0  0  0  0  0  0
    1.2392   -1.2390    0.4982 C   0  0  0  0  0  0  0  0  0  0  0  0
   -1.8524    1.5131    0.8077 O   0  0  0  0  0  0  0  0  0  0  0  0
   -4.1171    0.0785    1.1202 H   0  0  0  0  0  0  0  0  0  0  0  0
   -3.6641   -1.0333   -0.2288 H   0  0  0  0  0  0  0  0  0  0  0  0
   -4.0233    0.7000   -0.5765 H   0  0  0  0  0  0  0  0  0  0  0  0
   -1.3721   -1.6022    0.0399 H   0  0  0  0  0  0  0  0  0  0  0  0
    0.0752    1.6906   -0.8054 H   0  0  0  0  0  0  0  0  0  0  0  0
    2.4831    2.1748   -0.8582 H   0  0  0  0  0  0  0  0  0  0  0  0
    3.3190   -1.7076    0.7870 H   0  0  0  0  0  0  0  0  0  0  0  0
    0.9037   -2.1988    0.8706 H   0  0  0  0  0  0  0  0  0  0  0  0
  1  2  1  0
  2  3  1  0
  2 11  2  0
  3  4  1  0
  4 10  2  0
  4  5  1  0
  5  6  2  0
  6  7  1  0
  7  9  2  0
  7  8  1  0
  9 10  1  0
  1 12  1  0
  1 13  1  0
  1 14  1  0
  3 15  1  0
  5 16  1  0
  6 17  1  0
  9 18  1  0
 10 19  1  0
M  END
$$$$
