O=CNc1ccccc1
     RDKit          3D

 16 16  0  0  0  0  0  0  0  0999 V2000
    2.7373    0.6963   -1.1986 O   0  0  0  0  0  0  0  0  0  0  0  0
    2.8474   -0.2459   -0.3702 C   0  0  0  0  0  0  0  0  0  0  0  0
    1.6940   -0.8420    0.2373 N   0  0  0  0  0  0  0  0  0  0  0  0
    0.3591   -0.3168    0.1356 C   0  0  0  0  0  0  0  0  0  0  0  0
   -0.7299   -1.2032    0.1320 C   0  0  0  0  0  0  0  0  0  0  0  0
   -2.0388   -0.7171    0.0559 C   0  0  0  0  0  0  0  0  0  0  0  0
   -2.2722    0.6590   -0.0016 C   0  0  0  0  0  0  0  0  0  0  0  0
   -1.1973    1.5511    0.0253 C   0  0  0  0  0  0  0  0  0  0  0  0
    0.1135    1.0690    0.1002 C   0  0  0  0  0  0  0  0  0  0  0  0
    3.8302   -0.6375   -0.1437 H   0  0  0  0  0  0  0  0  0  0  0  0
    1.8302   -1.7647    0.7084 H   0  0  0  0  0  0  0  0  0  0  0  0
   -0.5622   -2.2720    0.1781 H   0  0  0  0  0  0  0  0  0  0  0  0
   -2.8722   -1.4076    0.0439 H   0  0  0  0  0  0  0  0  0  0  0  0
   -3.2859    1.0343   -0.0580 H   0  0  0  0  0  0  0  0  0  0  0  0
   -1.3802    2.6176   -0.0025 H   0  0  0  0  0  0  0  0  0  0  0  0
    0.9270    1.7793    0.1578 H   0  0  0  0  0  0  0  0  0  0  0  0
  1  2  2  0
  2  3  1  0
  3  4  1  0
  4  9  2  0
  4  5  1  0
  5  6  2  0
  6  7  1  0
  7  8  2  0
  8  9  1  0
  2 10  1  0
  3 11  1  0
  5 12  1  0
  6 13  1  0
  7 14  1  0
  8 15  1  0
  9 16  1  0
M  END
$$$$
