NC(Nc1ccccc1)=S
     RDKit          3D

 18 18  0  0  0  0  0  0  0  0999 V2000
    2.5209    0.6519   -1.1393 N   0  0  0  0  0  0  0  0  0  0  0  0
    2.5148   -0.3568   -0.1254 C   0  0  0  0  0  0  0  0  0  0  0  0
    1.3058   -1.0503    0.2185 N   0  0  0  0  0  0  0  0  0  0  0  0
   -0.0074   -0.4751    0.1186 C   0  0  0  0  0  0  0  0  0  0  0  0
   -1.1095   -1.3097   -0.1249 C   0  0  0  0  0  0  0  0  0  0  0  0
   -2.3994   -0.7747   -0.1983 C   0  0  0  0  0  0  0  0  0  0  0  0
   -2.6007    0.5956   -0.0138 C   0  0  0  0  0  0  0  0  0  0  0  0
   -1.5132    1.4316    0.2521 C   0  0  0  0  0  0  0  0  0  0  0  0
   -0.2217    0.9004    0.3259 C   0  0  0  0  0  0  0  0  0  0  0  0
    3.9349   -0.8508    0.5219 S   0  0  0  0  0  0  0  0  0  0  0  0
    1.6635    0.8592   -1.6968 H   0  0  0  0  0  0  0  0  0  0  0  0
    3.4033    1.1549   -1.3820 H   0  0  0  0  0  0  0  0  0  0  0  0
    1.3856   -2.0373    0.5539 H   0  0  0  0  0  0  0  0  0  0  0  0
   -0.9661   -2.3736   -0.2665 H   0  0  0  0  0  0  0  0  0  0  0  0
   -3.2433   -1.4231   -0.3959 H   0  0  0  0  0  0  0  0  0  0  0  0
   -3.5998    1.0082   -0.0690 H   0  0  0  0  0  0  0  0  0  0  0  0
   -1.6718    2.4908    0.4088 H   0  0  0  0  0  0  0  0  0  0  0  0
    0.6042    1.5588    0.5614 H   0  0  0  0  0  0  0  0  0  0  0  0
  1  2  1  0
  2  3  1  0
  2 10  2  0
  3  4  1  0
  4  9  2  0
  4  5  1  0
  5  6  2  0
  6  7  1  0
  7  8  2  0
  8  9  1  0
  1 11  1  0
  1 12  1  0
  3 13  1  0
  5 14  1  0
  6 15  1  0
  7 16  1  0
  8 17  1  0
  9 18  1  0
M  END
$$$$
