c1(N=Nc2ccccc2)ccccc1
     RDKit          3D

 24 25  0  0  0  0  0  0  0  0999 V2000
   -1.5311   -0.9811   -0.2003 C   0  0  0  0  0  0  0  0  0  0  0  0
   -0.7494   -2.1864   -0.2185 N   0  0  0  0  0  0  0  0  0  0  0  0
    0.5130   -2.2641   -0.0249 N   0  0  0  0  0  0  0  0  0  0  0  0
    1.4177   -1.1533    0.0836 C   0  0  0  0  0  0  0  0  0  0  0  0
    2.4348   -1.1944    1.0462 C   0  0  0  0  0  0  0  0  0  0  0  0
    3.3518   -0.1434    1.1491 C   0  0  0  0  0  0  0  0  0  0  0  0
    3.2712    0.9442    0.2749 C   0  0  0  0  0  0  0  0  0  0  0  0
    2.2808    0.9764   -0.7107 C   0  0  0  0  0  0  0  0  0  0  0  0
    1.3632   -0.0734   -0.8162 C   0  0  0  0  0  0  0  0  0  0  0  0
   -1.3680   -0.0173    0.8113 C   0  0  0  0  0  0  0  0  0  0  0  0
   -2.1690    1.1288    0.8258 C   0  0  0  0  0  0  0  0  0  0  0  0
   -3.1516    1.3087   -0.1517 C   0  0  0  0  0  0  0  0  0  0  0  0
   -3.3415    0.3371   -1.1385 C   0  0  0  0  0  0  0  0  0  0  0  0
   -2.5413   -0.8097   -1.1558 C   0  0  0  0  0  0  0  0  0  0  0  0
    2.5076   -2.0359    1.7237 H   0  0  0  0  0  0  0  0  0  0  0  0
    4.1267   -0.1739    1.9041 H   0  0  0  0  0  0  0  0  0  0  0  0
    3.9824    1.7562    0.3543 H   0  0  0  0  0  0  0  0  0  0  0  0
    2.2299    1.8103   -1.3988 H   0  0  0  0  0  0  0  0  0  0  0  0
    0.6221   -0.0495   -1.6045 H   0  0  0  0  0  0  0  0  0  0  0  0
   -0.6331   -0.1577    1.5931 H   0  0  0  0  0  0  0  0  0  0  0  0
   -2.0343    1.8728    1.6002 H   0  0  0  0  0  0  0  0  0  0  0  0
   -3.7725    2.1950   -0.1382 H   0  0  0  0  0  0  0  0  0  0  0  0
   -4.1110    0.4709   -1.8878 H   0  0  0  0  0  0  0  0  0  0  0  0
   -2.6987   -1.5601   -1.9203 H   0  0  0  0  0  0  0  0  0  0  0  0
  1  2  1  0
  1 14  1  0
  1 10  2  0
  2  3  2  0
  3  4  1  0
  4  9  1  0
  4  5  2  0
  5  6  1  0
  6  7  2  0
  7  8  1  0
  8  9  2  0
 10 11  1  0
 11 12  2  0
 12 13  1  0
 13 14  2  0
  5 15  1  0
  6 16  1  0
  7 17  1  0
  8 18  1  0
  9 19  1  0
 10 20  1  0
 11 21  1  0
 12 22  1  0
 13 23  1  0
 14 24  1  0
M  END
$$$$
