CCCCc1ccccc1
     RDKit          3D

 24 24  0  0  0  0  0  0  0  0999 V2000
   -3.8560    0.3505    0.5782 C   0  0  0  0  0  0  0  0  0  0  0  0
   -2.7764   -0.3221   -0.2647 C   0  0  0  0  0  0  0  0  0  0  0  0
   -1.3747    0.1072    0.1851 C   0  0  0  0  0  0  0  0  0  0  0  0
   -0.2913   -0.5728   -0.6667 C   0  0  0  0  0  0  0  0  0  0  0  0
    1.1390   -0.2178   -0.3063 C   0  0  0  0  0  0  0  0  0  0  0  0
    2.1714   -0.8117   -1.0539 C   0  0  0  0  0  0  0  0  0  0  0  0
    3.5108   -0.5270   -0.7728 C   0  0  0  0  0  0  0  0  0  0  0  0
    3.8373    0.3548    0.2586 C   0  0  0  0  0  0  0  0  0  0  0  0
    2.8249    0.9533    1.0108 C   0  0  0  0  0  0  0  0  0  0  0  0
    1.4829    0.6726    0.7347 C   0  0  0  0  0  0  0  0  0  0  0  0
   -4.8579    0.0214    0.2304 H   0  0  0  0  0  0  0  0  0  0  0  0
   -3.7908    1.4550    0.4791 H   0  0  0  0  0  0  0  0  0  0  0  0
   -3.7415    0.0704    1.6471 H   0  0  0  0  0  0  0  0  0  0  0  0
   -2.8804   -1.4250   -0.1679 H   0  0  0  0  0  0  0  0  0  0  0  0
   -2.9295   -0.0463   -1.3309 H   0  0  0  0  0  0  0  0  0  0  0  0
   -1.2856    1.2112    0.0824 H   0  0  0  0  0  0  0  0  0  0  0  0
   -1.2362   -0.1753    1.2521 H   0  0  0  0  0  0  0  0  0  0  0  0
   -0.4077   -1.6750   -0.5745 H   0  0  0  0  0  0  0  0  0  0  0  0
   -0.4565   -0.3021   -1.7327 H   0  0  0  0  0  0  0  0  0  0  0  0
    1.9370   -1.4986   -1.8582 H   0  0  0  0  0  0  0  0  0  0  0  0
    4.2960   -0.9908   -1.3558 H   0  0  0  0  0  0  0  0  0  0  0  0
    4.8748    0.5745    0.4752 H   0  0  0  0  0  0  0  0  0  0  0  0
    3.0802    1.6369    1.8104 H   0  0  0  0  0  0  0  0  0  0  0  0
    0.7302    1.1566    1.3403 H   0  0  0  0  0  0  0  0  0  0  0  0
  1  2  1  0
  2  3  1  0
  3  4  1  0
  4  5  1  0
  5 10  2  0
  5  6  1  0
  6  7  2  0
  7  8  1  0
  8  9  2  0
  9 10  1  0
  1 11  1  0
  1 12  1  0
  1 13  1  0
  2 14  1  0
  2 15  1  0
  3 16  1  0
  3 17  1  0
  4 18  1  0
  4 19  1  0
  6 20  1  0
  7 21  1  0
  8 22  1  0
  9 23  1  0
 10 24  1  0
M  END
$$$$
