CC(OCC)OCC
     RDKit          3D

 22 21  0  0  0  0  0  0  0  0999 V2000
    0.1668   -2.0662    0.5455 C   0  0  0  0  0  0  0  0  0  0  0  0
    0.1215   -0.6579    1.1867 C   0  0  0  0  0  0  0  0  0  0  0  0
   -1.0212    0.1654    0.9369 O   0  0  0  0  0  0  0  0  0  0  0  0
   -1.7320   -0.1542   -0.2434 C   0  0  0  0  0  0  0  0  0  0  0  0
   -2.7734    0.9239   -0.4994 C   0  0  0  0  0  0  0  0  0  0  0  0
    1.3405    0.0484    1.0107 O   0  0  0  0  0  0  0  0  0  0  0  0
    1.4365    0.6480   -0.2649 C   0  0  0  0  0  0  0  0  0  0  0  0
    2.8070    1.2919   -0.4060 C   0  0  0  0  0  0  0  0  0  0  0  0
   -0.7251   -2.6537    0.8501 H   0  0  0  0  0  0  0  0  0  0  0  0
    0.2171   -2.0295   -0.5610 H   0  0  0  0  0  0  0  0  0  0  0  0
    1.0681   -2.6053    0.9071 H   0  0  0  0  0  0  0  0  0  0  0  0
    0.0748   -0.8726    2.2755 H   0  0  0  0  0  0  0  0  0  0  0  0
   -2.2650   -1.1224   -0.1239 H   0  0  0  0  0  0  0  0  0  0  0  0
   -1.0642   -0.1947   -1.1299 H   0  0  0  0  0  0  0  0  0  0  0  0
   -3.3467    0.6823   -1.4194 H   0  0  0  0  0  0  0  0  0  0  0  0
   -2.2757    1.9079   -0.6332 H   0  0  0  0  0  0  0  0  0  0  0  0
   -3.4771    0.9849    0.3579 H   0  0  0  0  0  0  0  0  0  0  0  0
    1.3315   -0.1028   -1.0769 H   0  0  0  0  0  0  0  0  0  0  0  0
    0.6727    1.4478   -0.3835 H   0  0  0  0  0  0  0  0  0  0  0  0
    2.8961    1.7722   -1.4034 H   0  0  0  0  0  0  0  0  0  0  0  0
    3.6009    0.5217   -0.3050 H   0  0  0  0  0  0  0  0  0  0  0  0
    2.9470    2.0648    0.3794 H   0  0  0  0  0  0  0  0  0  0  0  0
  1  2  1  0
  2  6  1  0
  2  3  1  0
  3  4  1  0
  4  5  1  0
  6  7  1  0
  7  8  1  0
  1  9  1  0
  1 10  1  0
  1 11  1  0
  2 12  1  0
  4 13  1  0
  4 14  1  0
  5 15  1  0
  5 16  1  0
  5 17  1  0
  7 18  1  0
  7 19  1  0
  8 20  1  0
  8 21  1  0
  8 22  1  0
M  END
$$$$
