CCCC(OCCC)=O
     RDKit          3D

 23 22  0  0  0  0  0  0  0  0999 V2000
    3.5320    0.9816    0.2488 C   0  0  0  0  0  0  0  0  0  0  0  0
    2.1490    0.4425    0.6019 C   0  0  0  0  0  0  0  0  0  0  0  0
    1.6885   -0.6067   -0.4150 C   0  0  0  0  0  0  0  0  0  0  0  0
    0.3207   -1.1095   -0.0755 C   0  0  0  0  0  0  0  0  0  0  0  0
   -0.7421   -0.8550   -0.9494 O   0  0  0  0  0  0  0  0  0  0  0  0
   -2.0943   -1.2137   -0.6678 C   0  0  0  0  0  0  0  0  0  0  0  0
   -2.7062   -0.2866    0.3884 C   0  0  0  0  0  0  0  0  0  0  0  0
   -2.7162    1.1695   -0.0713 C   0  0  0  0  0  0  0  0  0  0  0  0
    0.1393   -1.7644    0.9875 O   0  0  0  0  0  0  0  0  0  0  0  0
    3.5142    1.4650   -0.7512 H   0  0  0  0  0  0  0  0  0  0  0  0
    4.2776    0.1581    0.2454 H   0  0  0  0  0  0  0  0  0  0  0  0
    3.8401    1.7366    1.0025 H   0  0  0  0  0  0  0  0  0  0  0  0
    2.1888   -0.0087    1.6175 H   0  0  0  0  0  0  0  0  0  0  0  0
    1.4264    1.2880    0.6200 H   0  0  0  0  0  0  0  0  0  0  0  0
    2.3966   -1.4634   -0.4277 H   0  0  0  0  0  0  0  0  0  0  0  0
    1.6692   -0.1541   -1.4304 H   0  0  0  0  0  0  0  0  0  0  0  0
   -2.1440   -2.2687   -0.3205 H   0  0  0  0  0  0  0  0  0  0  0  0
   -2.6848   -1.1413   -1.6059 H   0  0  0  0  0  0  0  0  0  0  0  0
   -3.7511   -0.6086    0.5869 H   0  0  0  0  0  0  0  0  0  0  0  0
   -2.1380   -0.3675    1.3395 H   0  0  0  0  0  0  0  0  0  0  0  0
   -3.2004    1.7997    0.7042 H   0  0  0  0  0  0  0  0  0  0  0  0
   -1.6787    1.5353   -0.2251 H   0  0  0  0  0  0  0  0  0  0  0  0
   -3.2867    1.2717   -1.0189 H   0  0  0  0  0  0  0  0  0  0  0  0
  1  2  1  0
  2  3  1  0
  3  4  1  0
  4  9  2  0
  4  5  1  0
  5  6  1  0
  6  7  1  0
  7  8  1  0
  1 10  1  0
  1 11  1  0
  1 12  1  0
  2 13  1  0
  2 14  1  0
  3 15  1  0
  3 16  1  0
  6 17  1  0
  6 18  1  0
  7 19  1  0
  7 20  1  0
  8 21  1  0
  8 22  1  0
  8 23  1  0
M  END
$$$$
