S=C(NCC)NCC
     RDKit          3D

 20 19  0  0  0  0  0  0  0  0999 V2000
    1.3323   -2.0458   -1.0409 S   0  0  0  0  0  0  0  0  0  0  0  0
    0.3545   -0.9364   -0.3246 C   0  0  0  0  0  0  0  0  0  0  0  0
    0.8769   -0.0153    0.6549 N   0  0  0  0  0  0  0  0  0  0  0  0
    2.3037    0.1766    0.9196 C   0  0  0  0  0  0  0  0  0  0  0  0
    2.9518    0.9930   -0.1935 C   0  0  0  0  0  0  0  0  0  0  0  0
   -1.0410   -0.9334   -0.6669 N   0  0  0  0  0  0  0  0  0  0  0  0
   -1.9877    0.0405   -0.1227 C   0  0  0  0  0  0  0  0  0  0  0  0
   -3.3717   -0.1380   -0.7388 C   0  0  0  0  0  0  0  0  0  0  0  0
    0.2135    0.5398    1.2386 H   0  0  0  0  0  0  0  0  0  0  0  0
    2.4266    0.7282    1.8769 H   0  0  0  0  0  0  0  0  0  0  0  0
    2.8141   -0.8036    1.0314 H   0  0  0  0  0  0  0  0  0  0  0  0
    2.8859    0.4566   -1.1626 H   0  0  0  0  0  0  0  0  0  0  0  0
    2.4447    1.9767   -0.2876 H   0  0  0  0  0  0  0  0  0  0  0  0
    4.0226    1.1636    0.0452 H   0  0  0  0  0  0  0  0  0  0  0  0
   -1.3801   -1.6409   -1.3591 H   0  0  0  0  0  0  0  0  0  0  0  0
   -2.0660   -0.0932    0.9776 H   0  0  0  0  0  0  0  0  0  0  0  0
   -1.6283    1.0695   -0.3406 H   0  0  0  0  0  0  0  0  0  0  0  0
   -3.3213    0.0045   -1.8393 H   0  0  0  0  0  0  0  0  0  0  0  0
   -4.0699    0.6127   -0.3123 H   0  0  0  0  0  0  0  0  0  0  0  0
   -3.7605   -1.1547   -0.5174 H   0  0  0  0  0  0  0  0  0  0  0  0
  1  2  2  0
  2  3  1  0
  2  6  1  0
  3  4  1  0
  4  5  1  0
  6  7  1  0
  7  8  1  0
  3  9  1  0
  4 10  1  0
  4 11  1  0
  5 12  1  0
  5 13  1  0
  5 14  1  0
  6 15  1  0
  7 16  1  0
  7 17  1  0
  8 18  1  0
  8 19  1  0
  8 20  1  0
M  END
$$$$
