Cc1ccc(Cl)cc1
     RDKit          3D

 15 15  0  0  0  0  0  0  0  0999 V2000
   -2.2644   -0.0876    0.0034 C   0  0  0  0  0  0  0  0  0  0  0  0
   -0.7651   -0.0382    0.0014 C   0  0  0  0  0  0  0  0  0  0  0  0
   -0.1094    1.2021   -0.0399 C   0  0  0  0  0  0  0  0  0  0  0  0
    1.2878    1.2608   -0.0422 C   0  0  0  0  0  0  0  0  0  0  0  0
    2.0393    0.0816   -0.0031 C   0  0  0  0  0  0  0  0  0  0  0  0
    3.7918    0.1568   -0.0060 Cl  0  0  0  0  0  0  0  0  0  0  0  0
    1.3916   -1.1576    0.0382 C   0  0  0  0  0  0  0  0  0  0  0  0
   -0.0056   -1.2193    0.0405 C   0  0  0  0  0  0  0  0  0  0  0  0
   -2.6546    0.3948   -0.9175 H   0  0  0  0  0  0  0  0  0  0  0  0
   -2.6542    0.4549    0.8903 H   0  0  0  0  0  0  0  0  0  0  0  0
   -2.6379   -1.1332    0.0382 H   0  0  0  0  0  0  0  0  0  0  0  0
   -0.6807    2.1218   -0.0704 H   0  0  0  0  0  0  0  0  0  0  0  0
    1.7844    2.2222   -0.0742 H   0  0  0  0  0  0  0  0  0  0  0  0
    1.9691   -2.0728    0.0685 H   0  0  0  0  0  0  0  0  0  0  0  0
   -0.4920   -2.1863    0.0728 H   0  0  0  0  0  0  0  0  0  0  0  0
  1  2  1  0
  2  8  2  0
  2  3  1  0
  3  4  2  0
  4  5  1  0
  5  7  2  0
  5  6  1  0
  7  8  1  0
  1  9  1  0
  1 10  1  0
  1 11  1  0
  3 12  1  0
  4 13  1  0
  7 14  1  0
  8 15  1  0
M  END
$$$$
