CC1NCC(C)NC1
     RDKit          3D

 22 22  0  0  1  0  0  0  0  0999 V2000
    2.8501   -0.4117   -0.0061 C   0  0  0  0  0  0  0  0  0  0  0  0
    1.4151    0.0756    0.2092 C   0  0  2  0  0  0  0  0  0  0  0  0
    0.6417   -0.9451    0.9348 N   0  0  0  0  0  0  0  0  0  0  0  0
   -0.7426   -0.4986    1.1384 C   0  0  0  0  0  0  0  0  0  0  0  0
   -1.4151   -0.1609   -0.2092 C   0  0  1  0  0  0  0  0  0  0  0  0
   -2.8501    0.3265    0.0061 C   0  0  0  0  0  0  0  0  0  0  0  0
   -0.6417    0.8599   -0.9348 N   0  0  0  0  0  0  0  0  0  0  0  0
    0.7426    0.4134   -1.1384 C   0  0  0  0  0  0  0  0  0  0  0  0
    2.8631   -1.3279   -0.6346 H   0  0  0  0  0  0  0  0  0  0  0  0
    3.3203   -0.6430    0.9732 H   0  0  0  0  0  0  0  0  0  0  0  0
    3.4514    0.3770   -0.5065 H   0  0  0  0  0  0  0  0  0  0  0  0
    1.4665    1.0007    0.8272 H   0  0  0  0  0  0  0  0  0  0  0  0
    0.6232   -1.8302    0.3737 H   0  0  0  0  0  0  0  0  0  0  0  0
   -1.3114   -1.3081    1.6459 H   0  0  0  0  0  0  0  0  0  0  0  0
   -0.7524    0.3889    1.8095 H   0  0  0  0  0  0  0  0  0  0  0  0
   -1.4665   -1.0859   -0.8272 H   0  0  0  0  0  0  0  0  0  0  0  0
   -3.4514   -0.4623    0.5065 H   0  0  0  0  0  0  0  0  0  0  0  0
   -2.8631    1.2427    0.6346 H   0  0  0  0  0  0  0  0  0  0  0  0
   -3.3203    0.5578   -0.9732 H   0  0  0  0  0  0  0  0  0  0  0  0
   -0.6232    1.7450   -0.3737 H   0  0  0  0  0  0  0  0  0  0  0  0
    0.7524   -0.4742   -1.8095 H   0  0  0  0  0  0  0  0  0  0  0  0
    1.3114    1.2228   -1.6459 H   0  0  0  0  0  0  0  0  0  0  0  0
  1  2  1  0
  2  8  1  0
  2  3  1  0
  3  4  1  0
  4  5  1  0
  5  6  1  0
  5  7  1  0
  7  8  1  0
  1  9  1  0
  1 10  1  0
  1 11  1  0
  2 12  1  1
  3 13  1  0
  4 14  1  0
  4 15  1  0
  5 16  1  6
  6 17  1  0
  6 18  1  0
  6 19  1  0
  7 20  1  0
  8 21  1  0
  8 22  1  0
M  END
$$$$
