O=C(OCC)CCCCCCC
     RDKit          3D

 32 31  0  0  0  0  0  0  0  0999 V2000
   -3.1334    1.3052   -0.7023 O   0  0  0  0  0  0  0  0  0  0  0  0
   -2.6668    0.3305   -0.0514 C   0  0  0  0  0  0  0  0  0  0  0  0
   -3.4860   -0.7422    0.3184 O   0  0  0  0  0  0  0  0  0  0  0  0
   -4.8883   -0.7838    0.0619 C   0  0  0  0  0  0  0  0  0  0  0  0
   -5.6397    0.1237    1.0291 C   0  0  0  0  0  0  0  0  0  0  0  0
   -1.2094    0.2905    0.2820 C   0  0  0  0  0  0  0  0  0  0  0  0
   -0.4255   -0.4100   -0.8351 C   0  0  0  0  0  0  0  0  0  0  0  0
    1.0588   -0.6000   -0.4849 C   0  0  0  0  0  0  0  0  0  0  0  0
    1.8339    0.7291   -0.4561 C   0  0  0  0  0  0  0  0  0  0  0  0
    3.3546    0.5238   -0.3719 C   0  0  0  0  0  0  0  0  0  0  0  0
    3.8001   -0.0334    0.9880 C   0  0  0  0  0  0  0  0  0  0  0  0
    5.3217   -0.1023    1.0816 C   0  0  0  0  0  0  0  0  0  0  0  0
   -5.0991   -0.4877   -0.9888 H   0  0  0  0  0  0  0  0  0  0  0  0
   -5.2425   -1.8265    0.2034 H   0  0  0  0  0  0  0  0  0  0  0  0
   -5.3392    1.1818    0.8806 H   0  0  0  0  0  0  0  0  0  0  0  0
   -6.7321    0.0353    0.8514 H   0  0  0  0  0  0  0  0  0  0  0  0
   -5.4199   -0.1741    2.0761 H   0  0  0  0  0  0  0  0  0  0  0  0
   -0.8415    1.3296    0.4182 H   0  0  0  0  0  0  0  0  0  0  0  0
   -1.0740   -0.2559    1.2403 H   0  0  0  0  0  0  0  0  0  0  0  0
   -0.8684   -1.4159   -1.0083 H   0  0  0  0  0  0  0  0  0  0  0  0
   -0.5190    0.1660   -1.7821 H   0  0  0  0  0  0  0  0  0  0  0  0
    1.1405   -1.1136    0.4969 H   0  0  0  0  0  0  0  0  0  0  0  0
    1.5086   -1.2653   -1.2540 H   0  0  0  0  0  0  0  0  0  0  0  0
    1.6169    1.2954   -1.3882 H   0  0  0  0  0  0  0  0  0  0  0  0
    1.5001    1.3498    0.4027 H   0  0  0  0  0  0  0  0  0  0  0  0
    3.8429    1.5100   -0.5335 H   0  0  0  0  0  0  0  0  0  0  0  0
    3.6893   -0.1546   -1.1872 H   0  0  0  0  0  0  0  0  0  0  0  0
    3.4197    0.6172    1.8054 H   0  0  0  0  0  0  0  0  0  0  0  0
    3.3937   -1.0568    1.1320 H   0  0  0  0  0  0  0  0  0  0  0  0
    5.7275   -0.7614    0.2848 H   0  0  0  0  0  0  0  0  0  0  0  0
    5.6151   -0.5168    2.0691 H   0  0  0  0  0  0  0  0  0  0  0  0
    5.7616    0.9125    0.9782 H   0  0  0  0  0  0  0  0  0  0  0  0
  1  2  2  0
  2  6  1  0
  2  3  1  0
  3  4  1  0
  4  5  1  0
  6  7  1  0
  7  8  1  0
  8  9  1  0
  9 10  1  0
 10 11  1  0
 11 12  1  0
  4 13  1  0
  4 14  1  0
  5 15  1  0
  5 16  1  0
  5 17  1  0
  6 18  1  0
  6 19  1  0
  7 20  1  0
  7 21  1  0
  8 22  1  0
  8 23  1  0
  9 24  1  0
  9 25  1  0
 10 26  1  0
 10 27  1  0
 11 28  1  0
 11 29  1  0
 12 30  1  0
 12 31  1  0
 12 32  1  0
M  END
$$$$
