O=C(C=C)OCC(C)C
     RDKit          3D

 21 20  0  0  0  0  0  0  0  0999 V2000
    1.1445   -0.1881   -2.0475 O   0  0  0  0  0  0  0  0  0  0  0  0
    1.6631    0.0115   -0.9158 C   0  0  0  0  0  0  0  0  0  0  0  0
    3.0331   -0.4585   -0.6655 C   0  0  0  0  0  0  0  0  0  0  0  0
    3.6378   -0.2887    0.5079 C   0  0  0  0  0  0  0  0  0  0  0  0
    0.9477    0.6749    0.0903 O   0  0  0  0  0  0  0  0  0  0  0  0
   -0.4030    1.1164   -0.0514 C   0  0  0  0  0  0  0  0  0  0  0  0
   -1.3865    0.0889    0.5391 C   0  0  0  0  0  0  0  0  0  0  0  0
   -1.3675   -1.2313   -0.2421 C   0  0  0  0  0  0  0  0  0  0  0  0
   -2.8068    0.6672    0.5614 C   0  0  0  0  0  0  0  0  0  0  0  0
    3.5674   -0.9619   -1.4620 H   0  0  0  0  0  0  0  0  0  0  0  0
    4.6475   -0.6510    0.6513 H   0  0  0  0  0  0  0  0  0  0  0  0
    3.1432    0.2068    1.3338 H   0  0  0  0  0  0  0  0  0  0  0  0
   -0.6451    1.3384   -1.1144 H   0  0  0  0  0  0  0  0  0  0  0  0
   -0.5023    2.0692    0.5114 H   0  0  0  0  0  0  0  0  0  0  0  0
   -1.0859   -0.1228    1.5892 H   0  0  0  0  0  0  0  0  0  0  0  0
   -2.1231   -1.9332    0.1712 H   0  0  0  0  0  0  0  0  0  0  0  0
   -0.3754   -1.7202   -0.1522 H   0  0  0  0  0  0  0  0  0  0  0  0
   -1.5929   -1.0557   -1.3160 H   0  0  0  0  0  0  0  0  0  0  0  0
   -2.8328    1.6001    1.1641 H   0  0  0  0  0  0  0  0  0  0  0  0
   -3.1528    0.8959   -0.4697 H   0  0  0  0  0  0  0  0  0  0  0  0
   -3.5102   -0.0581    1.0236 H   0  0  0  0  0  0  0  0  0  0  0  0
  1  2  2  0
  2  3  1  0
  2  5  1  0
  3  4  2  3
  5  6  1  0
  6  7  1  0
  7  9  1  0
  7  8  1  0
  3 10  1  0
  4 11  1  0
  4 12  1  0
  6 13  1  0
  6 14  1  0
  7 15  1  0
  8 16  1  0
  8 17  1  0
  8 18  1  0
  9 19  1  0
  9 20  1  0
  9 21  1  0
M  END
$$$$
