Brc1ccc(O)cc1
     RDKit          3D

 13 13  0  0  0  0  0  0  0  0999 V2000
    3.5213    0.0084    0.2043 Br  0  0  0  0  0  0  0  0  0  0  0  0
    1.6147    0.0380    0.0985 C   0  0  0  0  0  0  0  0  0  0  0  0
    0.9245    1.2484    0.2287 C   0  0  0  0  0  0  0  0  0  0  0  0
   -0.4720    1.2705    0.1513 C   0  0  0  0  0  0  0  0  0  0  0  0
   -1.1835    0.0831   -0.0566 C   0  0  0  0  0  0  0  0  0  0  0  0
   -2.5740    0.1183   -0.1318 O   0  0  0  0  0  0  0  0  0  0  0  0
   -0.4904   -1.1294   -0.1870 C   0  0  0  0  0  0  0  0  0  0  0  0
    0.9060   -1.1507   -0.1094 C   0  0  0  0  0  0  0  0  0  0  0  0
    1.4683    2.1704    0.3896 H   0  0  0  0  0  0  0  0  0  0  0  0
   -1.0012    2.2094    0.2527 H   0  0  0  0  0  0  0  0  0  0  0  0
   -3.1174   -0.7239   -0.2815 H   0  0  0  0  0  0  0  0  0  0  0  0
   -1.0318   -2.0530   -0.3480 H   0  0  0  0  0  0  0  0  0  0  0  0
    1.4355   -2.0894   -0.2108 H   0  0  0  0  0  0  0  0  0  0  0  0
  1  2  1  0
  2  8  2  0
  2  3  1  0
  3  4  2  0
  4  5  1  0
  5  7  2  0
  5  6  1  0
  7  8  1  0
  3  9  1  0
  4 10  1  0
  6 11  1  0
  7 12  1  0
  8 13  1  0
M  END
$$$$
