O=C1CNC(CN1)=O
     RDKit          3D

 14 14  0  0  0  0  0  0  0  0999 V2000
    1.4575    2.2578    0.0539 O   0  0  0  0  0  0  0  0  0  0  0  0
    0.7777    1.1974    0.0697 C   0  0  0  0  0  0  0  0  0  0  0  0
    1.4578   -0.1205    0.2927 C   0  0  0  0  0  0  0  0  0  0  0  0
    0.6773   -1.2142   -0.2812 N   0  0  0  0  0  0  0  0  0  0  0  0
   -0.7511   -1.1591   -0.3683 C   0  0  0  0  0  0  0  0  0  0  0  0
   -1.4888    0.0760    0.0553 C   0  0  0  0  0  0  0  0  0  0  0  0
   -0.6450    1.2607   -0.0822 N   0  0  0  0  0  0  0  0  0  0  0  0
   -1.3940   -2.1665   -0.7666 O   0  0  0  0  0  0  0  0  0  0  0  0
    1.5800   -0.2904    1.3830 H   0  0  0  0  0  0  0  0  0  0  0  0
    2.4634   -0.1028   -0.1797 H   0  0  0  0  0  0  0  0  0  0  0  0
    1.1676   -2.1021   -0.5325 H   0  0  0  0  0  0  0  0  0  0  0  0
   -2.3962    0.1993   -0.5742 H   0  0  0  0  0  0  0  0  0  0  0  0
   -1.8027   -0.0294    1.1150 H   0  0  0  0  0  0  0  0  0  0  0  0
   -1.1036    2.1939   -0.1850 H   0  0  0  0  0  0  0  0  0  0  0  0
  1  2  2  0
  2  3  1  0
  2  7  1  0
  3  4  1  0
  4  5  1  0
  5  6  1  0
  5  8  2  0
  6  7  1  0
  3  9  1  0
  3 10  1  0
  4 11  1  0
  6 12  1  0
  6 13  1  0
  7 14  1  0
M  END
$$$$
