Brc1ccc(Br)cc1
     RDKit          3D

 12 12  0  0  0  0  0  0  0  0999 V2000
   -3.2787   -0.4540    0.0097 Br  0  0  0  0  0  0  0  0  0  0  0  0
   -1.3869   -0.1921    0.0041 C   0  0  0  0  0  0  0  0  0  0  0  0
   -0.5266   -1.2961    0.0029 C   0  0  0  0  0  0  0  0  0  0  0  0
    0.8590   -1.1043   -0.0012 C   0  0  0  0  0  0  0  0  0  0  0  0
    1.3869    0.1921   -0.0041 C   0  0  0  0  0  0  0  0  0  0  0  0
    3.2787    0.4540   -0.0097 Br  0  0  0  0  0  0  0  0  0  0  0  0
    0.5266    1.2961   -0.0029 C   0  0  0  0  0  0  0  0  0  0  0  0
   -0.8590    1.1043    0.0012 C   0  0  0  0  0  0  0  0  0  0  0  0
   -0.9300   -2.3006    0.0051 H   0  0  0  0  0  0  0  0  0  0  0  0
    1.5201   -1.9613   -0.0022 H   0  0  0  0  0  0  0  0  0  0  0  0
    0.9300    2.3006   -0.0051 H   0  0  0  0  0  0  0  0  0  0  0  0
   -1.5201    1.9613    0.0022 H   0  0  0  0  0  0  0  0  0  0  0  0
  1  2  1  0
  2  8  2  0
  2  3  1  0
  3  4  2  0
  4  5  1  0
  5  7  2  0
  5  6  1  0
  7  8  1  0
  3  9  1  0
  4 10  1  0
  7 11  1  0
  8 12  1  0
M  END
$$$$
