C(OC)=O
     RDKit          3D

  8  7  0  0  0  0  0  0  0  0999 V2000
    1.3874    0.0744    0.1184 C   0  0  0  0  0  0  0  0  0  0  0  0
    0.2540   -0.7146   -0.0903 O   0  0  0  0  0  0  0  0  0  0  0  0
   -1.0617   -0.1740   -0.1086 C   0  0  0  0  0  0  0  0  0  0  0  0
    1.2900    1.3173    0.3019 O   0  0  0  0  0  0  0  0  0  0  0  0
    2.3641   -0.3897    0.1223 H   0  0  0  0  0  0  0  0  0  0  0  0
   -1.2913    0.3014    0.8685 H   0  0  0  0  0  0  0  0  0  0  0  0
   -1.1532    0.5767   -0.9220 H   0  0  0  0  0  0  0  0  0  0  0  0
   -1.7893   -0.9914   -0.2903 H   0  0  0  0  0  0  0  0  0  0  0  0
  1  4  2  0
  1  2  1  0
  2  3  1  0
  1  5  1  0
  3  6  1  0
  3  7  1  0
  3  8  1  0
M  END
$$$$
