OC(CCC)=O
     RDKit          3D

 14 13  0  0  0  0  0  0  0  0999 V2000
    1.6440   -1.6273    0.2218 O   0  0  0  0  0  0  0  0  0  0  0  0
    1.2118   -0.7685   -0.7848 C   0  0  0  0  0  0  0  0  0  0  0  0
    0.7486    0.6216   -0.4594 C   0  0  0  0  0  0  0  0  0  0  0  0
   -0.7788    0.6986   -0.3408 C   0  0  0  0  0  0  0  0  0  0  0  0
   -1.3065   -0.0489    0.8834 C   0  0  0  0  0  0  0  0  0  0  0  0
    1.1812   -1.1767   -1.9755 O   0  0  0  0  0  0  0  0  0  0  0  0
    1.6628   -1.3331    1.1909 H   0  0  0  0  0  0  0  0  0  0  0  0
    1.2229    0.9706    0.4833 H   0  0  0  0  0  0  0  0  0  0  0  0
    1.0802    1.3075   -1.2688 H   0  0  0  0  0  0  0  0  0  0  0  0
   -1.0740    1.7668   -0.2549 H   0  0  0  0  0  0  0  0  0  0  0  0
   -1.2533    0.2895   -1.2595 H   0  0  0  0  0  0  0  0  0  0  0  0
   -0.8334    0.3420    1.8093 H   0  0  0  0  0  0  0  0  0  0  0  0
   -1.1004   -1.1363    0.7955 H   0  0  0  0  0  0  0  0  0  0  0  0
   -2.4050    0.0941    0.9592 H   0  0  0  0  0  0  0  0  0  0  0  0
  1  2  1  0
  2  3  1  0
  2  6  2  0
  3  4  1  0
  4  5  1  0
  1  7  1  0
  3  8  1  0
  3  9  1  0
  4 10  1  0
  4 11  1  0
  5 12  1  0
  5 13  1  0
  5 14  1  0
M  END
$$$$
