CC(CCC)=O
     RDKit          3D

 16 15  0  0  0  0  0  0  0  0999 V2000
   -2.1432   -0.4325   -0.5169 C   0  0  0  0  0  0  0  0  0  0  0  0
   -1.5093    0.4906    0.4873 C   0  0  0  0  0  0  0  0  0  0  0  0
   -0.0118    0.6168    0.6600 C   0  0  0  0  0  0  0  0  0  0  0  0
    0.8122   -0.2785   -0.2778 C   0  0  0  0  0  0  0  0  0  0  0  0
    2.3083   -0.0920   -0.0405 C   0  0  0  0  0  0  0  0  0  0  0  0
   -2.2339    1.1709    1.1974 O   0  0  0  0  0  0  0  0  0  0  0  0
   -3.2509   -0.3606   -0.4677 H   0  0  0  0  0  0  0  0  0  0  0  0
   -1.8533   -1.4822   -0.3039 H   0  0  0  0  0  0  0  0  0  0  0  0
   -1.8221   -0.1561   -1.5425 H   0  0  0  0  0  0  0  0  0  0  0  0
    0.2384    0.3642    1.7135 H   0  0  0  0  0  0  0  0  0  0  0  0
    0.2693    1.6783    0.4860 H   0  0  0  0  0  0  0  0  0  0  0  0
    0.5576   -1.3459   -0.1017 H   0  0  0  0  0  0  0  0  0  0  0  0
    0.5886   -0.0242   -1.3363 H   0  0  0  0  0  0  0  0  0  0  0  0
    2.5701   -0.3617    1.0049 H   0  0  0  0  0  0  0  0  0  0  0  0
    2.6012    0.9623   -0.2319 H   0  0  0  0  0  0  0  0  0  0  0  0
    2.8789   -0.7494   -0.7299 H   0  0  0  0  0  0  0  0  0  0  0  0
  1  2  1  0
  2  3  1  0
  2  6  2  0
  3  4  1  0
  4  5  1  0
  1  7  1  0
  1  8  1  0
  1  9  1  0
  3 10  1  0
  3 11  1  0
  4 12  1  0
  4 13  1  0
  5 14  1  0
  5 15  1  0
  5 16  1  0
M  END
$$$$
