BrCCCl
     RDKit          3D

  8  7  0  0  0  0  0  0  0  0999 V2000
    1.8911    1.2963   -0.0641 Br  0  0  0  0  0  0  0  0  0  0  0  0
    0.7123   -0.2411   -0.0586 C   0  0  0  0  0  0  0  0  0  0  0  0
   -0.7368    0.2100    0.0588 C   0  0  0  0  0  0  0  0  0  0  0  0
   -1.8202   -1.2040    0.0638 Cl  0  0  0  0  0  0  0  0  0  0  0  0
    0.8581   -0.8072   -1.0030 H   0  0  0  0  0  0  0  0  0  0  0  0
    0.9778   -0.8925    0.8008 H   0  0  0  0  0  0  0  0  0  0  0  0
   -1.0009    0.8619   -0.8005 H   0  0  0  0  0  0  0  0  0  0  0  0
   -0.8813    0.7766    1.0029 H   0  0  0  0  0  0  0  0  0  0  0  0
  1  2  1  0
  2  3  1  0
  3  4  1  0
  2  5  1  0
  2  6  1  0
  3  7  1  0
  3  8  1  0
M  END
$$$$
