C=CC#N
     RDKit          3D

  7  6  0  0  0  0  0  0  0  0999 V2000
   -0.9852   -0.3043    0.2061 C   0  0  0  0  0  0  0  0  0  0  0  0
    0.0529    0.4479   -0.1419 C   0  0  0  0  0  0  0  0  0  0  0  0
    1.3981    0.0153    0.1251 C   0  0  0  0  0  0  0  0  0  0  0  0
    2.4808   -0.3324    0.3397 N   0  0  0  0  0  0  0  0  0  0  0  0
   -0.8449   -1.2595    0.6981 H   0  0  0  0  0  0  0  0  0  0  0  0
   -1.9919    0.0343   -0.0013 H   0  0  0  0  0  0  0  0  0  0  0  0
   -0.1098    1.3987   -0.6325 H   0  0  0  0  0  0  0  0  0  0  0  0
  1  2  2  3
  2  3  1  0
  3  4  3  0
  1  5  1  0
  1  6  1  0
  2  7  1  0
M  END
$$$$
