CC(C)CCBr
     RDKit          3D

 17 16  0  0  0  0  0  0  0  0999 V2000
   -1.0214   -0.4892    1.1631 C   0  0  0  0  0  0  0  0  0  0  0  0
   -0.3644    0.4798    0.1684 C   0  0  0  0  0  0  0  0  0  0  0  0
   -1.4341    1.0917   -0.7454 C   0  0  0  0  0  0  0  0  0  0  0  0
    0.7221   -0.2160   -0.6817 C   0  0  0  0  0  0  0  0  0  0  0  0
    1.9458   -0.6273    0.1411 C   0  0  0  0  0  0  0  0  0  0  0  0
    3.3334   -1.3089   -1.0272 Br  0  0  0  0  0  0  0  0  0  0  0  0
   -1.4367   -1.3738    0.6343 H   0  0  0  0  0  0  0  0  0  0  0  0
   -1.8456    0.0195    1.7076 H   0  0  0  0  0  0  0  0  0  0  0  0
   -0.2871   -0.8305    1.9213 H   0  0  0  0  0  0  0  0  0  0  0  0
    0.1025    1.3105    0.7431 H   0  0  0  0  0  0  0  0  0  0  0  0
   -0.9739    1.8309   -1.4354 H   0  0  0  0  0  0  0  0  0  0  0  0
   -1.9340    0.3019   -1.3468 H   0  0  0  0  0  0  0  0  0  0  0  0
   -2.2006    1.6215   -0.1403 H   0  0  0  0  0  0  0  0  0  0  0  0
    0.2969   -1.1123   -1.1847 H   0  0  0  0  0  0  0  0  0  0  0  0
    1.0646    0.4859   -1.4738 H   0  0  0  0  0  0  0  0  0  0  0  0
    1.6828   -1.4296    0.8606 H   0  0  0  0  0  0  0  0  0  0  0  0
    2.3497    0.2461    0.6959 H   0  0  0  0  0  0  0  0  0  0  0  0
  1  2  1  0
  2  3  1  0
  2  4  1  0
  4  5  1  0
  5  6  1  0
  1  7  1  0
  1  8  1  0
  1  9  1  0
  2 10  1  0
  3 11  1  0
  3 12  1  0
  3 13  1  0
  4 14  1  0
  4 15  1  0
  5 16  1  0
  5 17  1  0
M  END
$$$$
