CC1CCCCC1
     RDKit          3D

 21 21  0  0  0  0  0  0  0  0999 V2000
    2.4341    0.0555    0.1242 C   0  0  0  0  0  0  0  0  0  0  0  0
    0.9665    0.1671   -0.3020 C   0  0  0  0  0  0  0  0  0  0  0  0
    0.2002    1.1158    0.6403 C   0  0  0  0  0  0  0  0  0  0  0  0
   -1.2779    1.2125    0.2415 C   0  0  0  0  0  0  0  0  0  0  0  0
   -1.9329   -0.1736    0.2153 C   0  0  0  0  0  0  0  0  0  0  0  0
   -1.1755   -1.1217   -0.7221 C   0  0  0  0  0  0  0  0  0  0  0  0
    0.3028   -1.2237   -0.3255 C   0  0  0  0  0  0  0  0  0  0  0  0
    2.9868   -0.6044   -0.5781 H   0  0  0  0  0  0  0  0  0  0  0  0
    2.5149   -0.3644    1.1500 H   0  0  0  0  0  0  0  0  0  0  0  0
    2.9139    1.0573    0.1080 H   0  0  0  0  0  0  0  0  0  0  0  0
    0.9422    0.5910   -1.3313 H   0  0  0  0  0  0  0  0  0  0  0  0
    0.6504    2.1314    0.5957 H   0  0  0  0  0  0  0  0  0  0  0  0
    0.2741    0.7533    1.6899 H   0  0  0  0  0  0  0  0  0  0  0  0
   -1.8134    1.8570    0.9714 H   0  0  0  0  0  0  0  0  0  0  0  0
   -1.3644    1.6859   -0.7613 H   0  0  0  0  0  0  0  0  0  0  0  0
   -1.9500   -0.5987    1.2430 H   0  0  0  0  0  0  0  0  0  0  0  0
   -2.9838   -0.0762   -0.1326 H   0  0  0  0  0  0  0  0  0  0  0  0
   -1.6385   -2.1308   -0.6749 H   0  0  0  0  0  0  0  0  0  0  0  0
   -1.2573   -0.7561   -1.7694 H   0  0  0  0  0  0  0  0  0  0  0  0
    0.8262   -1.8755   -1.0586 H   0  0  0  0  0  0  0  0  0  0  0  0
    0.3817   -1.7015    0.6765 H   0  0  0  0  0  0  0  0  0  0  0  0
  1  2  1  0
  2  3  1  0
  2  7  1  0
  3  4  1  0
  4  5  1  0
  5  6  1  0
  6  7  1  0
  1  8  1  0
  1  9  1  0
  1 10  1  0
  2 11  1  0
  3 12  1  0
  3 13  1  0
  4 14  1  0
  4 15  1  0
  5 16  1  0
  5 17  1  0
  6 18  1  0
  6 19  1  0
  7 20  1  0
  7 21  1  0
M  END
$$$$
