Clc1cc(N)ccc1
     RDKit          3D

 14 14  0  0  0  0  0  0  0  0999 V2000
    2.4639    2.2065   -0.7350 Cl  0  0  0  0  0  0  0  0  0  0  0  0
    1.3531    0.9099   -0.3322 C   0  0  0  0  0  0  0  0  0  0  0  0
   -0.0231    1.1598   -0.2725 C   0  0  0  0  0  0  0  0  0  0  0  0
   -0.9145    0.1251    0.0494 C   0  0  0  0  0  0  0  0  0  0  0  0
   -2.3204    0.3794    0.1107 N   0  0  0  0  0  0  0  0  0  0  0  0
   -0.4176   -1.1605    0.3107 C   0  0  0  0  0  0  0  0  0  0  0  0
    0.9574   -1.4080    0.2505 C   0  0  0  0  0  0  0  0  0  0  0  0
    1.8423   -0.3746   -0.0705 C   0  0  0  0  0  0  0  0  0  0  0  0
   -0.3976    2.1554   -0.4757 H   0  0  0  0  0  0  0  0  0  0  0  0
   -2.7002    1.3330   -0.0822 H   0  0  0  0  0  0  0  0  0  0  0  0
   -2.9918   -0.3842    0.3494 H   0  0  0  0  0  0  0  0  0  0  0  0
   -1.0943   -1.9681    0.5602 H   0  0  0  0  0  0  0  0  0  0  0  0
    1.3371   -2.4012    0.4527 H   0  0  0  0  0  0  0  0  0  0  0  0
    2.9056   -0.5726   -0.1155 H   0  0  0  0  0  0  0  0  0  0  0  0
  1  2  1  0
  2  8  2  0
  2  3  1  0
  3  4  2  0
  4  6  1  0
  4  5  1  0
  6  7  2  0
  7  8  1  0
  3  9  1  0
  5 10  1  0
  5 11  1  0
  6 12  1  0
  7 13  1  0
  8 14  1  0
M  END
$$$$
