Cc1cc(C)ccc1
     RDKit          3D

 18 18  0  0  0  0  0  0  0  0999 V2000
    2.4462   -1.0587   -0.0564 C   0  0  0  0  0  0  0  0  0  0  0  0
    1.2062   -0.2144   -0.0735 C   0  0  0  0  0  0  0  0  0  0  0  0
   -0.0496   -0.8188    0.0929 C   0  0  0  0  0  0  0  0  0  0  0  0
   -1.2205   -0.0443    0.0706 C   0  0  0  0  0  0  0  0  0  0  0  0
   -2.5570   -0.6896    0.2883 C   0  0  0  0  0  0  0  0  0  0  0  0
   -1.1251    1.3466   -0.0886 C   0  0  0  0  0  0  0  0  0  0  0  0
    0.1235    1.9515   -0.2547 C   0  0  0  0  0  0  0  0  0  0  0  0
    1.2859    1.1761   -0.2502 C   0  0  0  0  0  0  0  0  0  0  0  0
    2.5248   -1.5860    0.9176 H   0  0  0  0  0  0  0  0  0  0  0  0
    2.3971   -1.8098   -0.8727 H   0  0  0  0  0  0  0  0  0  0  0  0
    3.3604   -0.4439   -0.1984 H   0  0  0  0  0  0  0  0  0  0  0  0
   -0.1140   -1.8909    0.2388 H   0  0  0  0  0  0  0  0  0  0  0  0
   -2.7787   -0.7215    1.3754 H   0  0  0  0  0  0  0  0  0  0  0  0
   -3.3575   -0.1182   -0.2283 H   0  0  0  0  0  0  0  0  0  0  0  0
   -2.5616   -1.7254   -0.1132 H   0  0  0  0  0  0  0  0  0  0  0  0
   -2.0164    1.9619   -0.0849 H   0  0  0  0  0  0  0  0  0  0  0  0
    0.1907    3.0241   -0.3834 H   0  0  0  0  0  0  0  0  0  0  0  0
    2.2455    1.6612   -0.3792 H   0  0  0  0  0  0  0  0  0  0  0  0
  1  2  1  0
  2  8  2  0
  2  3  1  0
  3  4  2  0
  4  5  1  0
  4  6  1  0
  6  7  2  0
  7  8  1  0
  1  9  1  0
  1 10  1  0
  1 11  1  0
  3 12  1  0
  5 13  1  0
  5 14  1  0
  5 15  1  0
  6 16  1  0
  7 17  1  0
  8 18  1  0
M  END
$$$$
