Oc1cccc(C)c1
     RDKit          3D

 16 16  0  0  0  0  0  0  0  0999 V2000
    2.6821   -1.2103   -0.2805 O   0  0  0  0  0  0  0  0  0  0  0  0
    1.5604   -0.3978   -0.1316 C   0  0  0  0  0  0  0  0  0  0  0  0
    1.7209    0.9881   -0.0301 C   0  0  0  0  0  0  0  0  0  0  0  0
    0.6035    1.8155    0.1110 C   0  0  0  0  0  0  0  0  0  0  0  0
   -0.6789    1.2607    0.1570 C   0  0  0  0  0  0  0  0  0  0  0  0
   -0.8503   -0.1302    0.0747 C   0  0  0  0  0  0  0  0  0  0  0  0
   -2.2279   -0.7236    0.0843 C   0  0  0  0  0  0  0  0  0  0  0  0
    0.2744   -0.9559   -0.0852 C   0  0  0  0  0  0  0  0  0  0  0  0
    2.6002   -2.2174   -0.3575 H   0  0  0  0  0  0  0  0  0  0  0  0
    2.7113    1.4237   -0.0660 H   0  0  0  0  0  0  0  0  0  0  0  0
    0.7311    2.8880    0.1813 H   0  0  0  0  0  0  0  0  0  0  0  0
   -1.5366    1.9145    0.2572 H   0  0  0  0  0  0  0  0  0  0  0  0
   -2.2117   -1.7439    0.5233 H   0  0  0  0  0  0  0  0  0  0  0  0
   -2.9191   -0.1002    0.6907 H   0  0  0  0  0  0  0  0  0  0  0  0
   -2.6115   -0.7826   -0.9556 H   0  0  0  0  0  0  0  0  0  0  0  0
    0.1524   -2.0287   -0.1729 H   0  0  0  0  0  0  0  0  0  0  0  0
  1  2  1  0
  2  3  2  0
  2  8  1  0
  3  4  1  0
  4  5  2  0
  5  6  1  0
  6  7  1  0
  6  8  2  0
  1  9  1  0
  3 10  1  0
  4 11  1  0
  5 12  1  0
  7 13  1  0
  7 14  1  0
  7 15  1  0
  8 16  1  0
M  END
$$$$
