Oc1cccc(Cl)c1
     RDKit          3D

 13 13  0  0  0  0  0  0  0  0999 V2000
    2.4432   -0.7087    0.0400 O   0  0  0  0  0  0  0  0  0  0  0  0
    1.0916   -0.3724    0.0155 C   0  0  0  0  0  0  0  0  0  0  0  0
    0.1285   -1.3857   -0.0547 C   0  0  0  0  0  0  0  0  0  0  0  0
   -1.2316   -1.0610   -0.0799 C   0  0  0  0  0  0  0  0  0  0  0  0
   -1.6332    0.2776   -0.0350 C   0  0  0  0  0  0  0  0  0  0  0  0
   -0.6741    1.2945    0.0353 C   0  0  0  0  0  0  0  0  0  0  0  0
   -1.1780    2.9738    0.0916 Cl  0  0  0  0  0  0  0  0  0  0  0  0
    0.6876    0.9702    0.0605 C   0  0  0  0  0  0  0  0  0  0  0  0
    3.1645    0.0012    0.0905 H   0  0  0  0  0  0  0  0  0  0  0  0
    0.4342   -2.4236   -0.0897 H   0  0  0  0  0  0  0  0  0  0  0  0
   -1.9741   -1.8467   -0.1342 H   0  0  0  0  0  0  0  0  0  0  0  0
   -2.6874    0.5230   -0.0548 H   0  0  0  0  0  0  0  0  0  0  0  0
    1.4287    1.7578    0.1149 H   0  0  0  0  0  0  0  0  0  0  0  0
  1  2  1  0
  2  3  2  0
  2  8  1  0
  3  4  1  0
  4  5  2  0
  5  6  1  0
  6  7  1  0
  6  8  2  0
  1  9  1  0
  3 10  1  0
  4 11  1  0
  5 12  1  0
  8 13  1  0
M  END
$$$$
