Cc1nc(C)ccc1
     RDKit          3D

 17 17  0  0  0  0  0  0  0  0999 V2000
   -2.3417   -1.1935   -0.4571 C   0  0  0  0  0  0  0  0  0  0  0  0
   -1.1605   -0.3190   -0.1746 C   0  0  0  0  0  0  0  0  0  0  0  0
    0.0851   -0.8684   -0.1573 N   0  0  0  0  0  0  0  0  0  0  0  0
    1.1991   -0.1265    0.0934 C   0  0  0  0  0  0  0  0  0  0  0  0
    2.5441   -0.7799    0.1005 C   0  0  0  0  0  0  0  0  0  0  0  0
    1.0773    1.2463    0.3433 C   0  0  0  0  0  0  0  0  0  0  0  0
   -0.1888    1.8337    0.3313 C   0  0  0  0  0  0  0  0  0  0  0  0
   -1.3165    1.0528    0.0718 C   0  0  0  0  0  0  0  0  0  0  0  0
   -2.2268   -1.6577   -1.4589 H   0  0  0  0  0  0  0  0  0  0  0  0
   -2.4000   -1.9949    0.3088 H   0  0  0  0  0  0  0  0  0  0  0  0
   -3.2907   -0.6162   -0.4400 H   0  0  0  0  0  0  0  0  0  0  0  0
    3.0172   -0.6534    1.0970 H   0  0  0  0  0  0  0  0  0  0  0  0
    2.4521   -1.8655   -0.1155 H   0  0  0  0  0  0  0  0  0  0  0  0
    3.1907   -0.3158   -0.6737 H   0  0  0  0  0  0  0  0  0  0  0  0
    1.9523    1.8520    0.5446 H   0  0  0  0  0  0  0  0  0  0  0  0
   -0.2960    2.8936    0.5229 H   0  0  0  0  0  0  0  0  0  0  0  0
   -2.2969    1.5126    0.0634 H   0  0  0  0  0  0  0  0  0  0  0  0
  1  2  1  0
  2  8  2  0
  2  3  1  0
  3  4  2  0
  4  5  1  0
  4  6  1  0
  6  7  2  0
  7  8  1  0
  1  9  1  0
  1 10  1  0
  1 11  1  0
  5 12  1  0
  5 13  1  0
  5 14  1  0
  6 15  1  0
  7 16  1  0
  8 17  1  0
M  END
$$$$
