Clc1cc(Cl)cc(Cl)c1
     RDKit          3D

 12 12  0  0  0  0  0  0  0  0999 V2000
   -0.1372    3.1507   -0.0501 Cl  0  0  0  0  0  0  0  0  0  0  0  0
   -0.0609    1.3985   -0.0223 C   0  0  0  0  0  0  0  0  0  0  0  0
    1.1804    0.7518   -0.0061 C   0  0  0  0  0  0  0  0  0  0  0  0
    1.2417   -0.6464    0.0161 C   0  0  0  0  0  0  0  0  0  0  0  0
    2.7975   -1.4564    0.0363 Cl  0  0  0  0  0  0  0  0  0  0  0  0
    0.0609   -1.3980    0.0222 C   0  0  0  0  0  0  0  0  0  0  0  0
   -1.1808   -0.7521    0.0061 C   0  0  0  0  0  0  0  0  0  0  0  0
   -2.6603   -1.6943    0.0138 Cl  0  0  0  0  0  0  0  0  0  0  0  0
   -1.2412    0.6462   -0.0161 C   0  0  0  0  0  0  0  0  0  0  0  0
    2.0936    1.3334   -0.0108 H   0  0  0  0  0  0  0  0  0  0  0  0
    0.1080   -2.4796    0.0395 H   0  0  0  0  0  0  0  0  0  0  0  0
   -2.2016    1.1461   -0.0286 H   0  0  0  0  0  0  0  0  0  0  0  0
  1  2  1  0
  2  9  2  0
  2  3  1  0
  3  4  2  0
  4  6  1  0
  4  5  1  0
  6  7  2  0
  7  9  1  0
  7  8  1  0
  3 10  1  0
  6 11  1  0
  9 12  1  0
M  END
$$$$
