CN1CCOCC1
     RDKit          3D

 18 18  0  0  0  0  0  0  0  0999 V2000
    2.1586   -0.0775   -0.1340 C   0  0  0  0  0  0  0  0  0  0  0  0
    0.7285    0.0661   -0.4441 N   0  0  0  0  0  0  0  0  0  0  0  0
    0.0238   -1.2129   -0.2304 C   0  0  0  0  0  0  0  0  0  0  0  0
   -1.5044   -1.0189   -0.3066 C   0  0  0  0  0  0  0  0  0  0  0  0
   -1.8304    0.2543   -0.8276 O   0  0  0  0  0  0  0  0  0  0  0  0
   -1.3776    1.2633    0.0580 C   0  0  0  0  0  0  0  0  0  0  0  0
    0.1247    1.1229    0.3853 C   0  0  0  0  0  0  0  0  0  0  0  0
    2.3176   -0.3380    0.9364 H   0  0  0  0  0  0  0  0  0  0  0  0
    2.6088   -0.8700   -0.7698 H   0  0  0  0  0  0  0  0  0  0  0  0
    2.6930    0.8707   -0.3579 H   0  0  0  0  0  0  0  0  0  0  0  0
    0.2837   -1.6526    0.7600 H   0  0  0  0  0  0  0  0  0  0  0  0
    0.3374   -1.9330   -1.0180 H   0  0  0  0  0  0  0  0  0  0  0  0
   -1.9408   -1.7946   -0.9712 H   0  0  0  0  0  0  0  0  0  0  0  0
   -1.9664   -1.1615    0.6975 H   0  0  0  0  0  0  0  0  0  0  0  0
   -1.9819    1.2549    0.9930 H   0  0  0  0  0  0  0  0  0  0  0  0
   -1.5517    2.2474   -0.4270 H   0  0  0  0  0  0  0  0  0  0  0  0
    0.6323    2.0935    0.1889 H   0  0  0  0  0  0  0  0  0  0  0  0
    0.2447    0.8857    1.4676 H   0  0  0  0  0  0  0  0  0  0  0  0
  1  2  1  0
  2  7  1  0
  2  3  1  0
  3  4  1  0
  4  5  1  0
  5  6  1  0
  6  7  1  0
  1  8  1  0
  1  9  1  0
  1 10  1  0
  3 11  1  0
  3 12  1  0
  4 13  1  0
  4 14  1  0
  6 15  1  0
  6 16  1  0
  7 17  1  0
  7 18  1  0
M  END
$$$$
