ClCCCBr
     RDKit          3D

 11 10  0  0  0  0  0  0  0  0999 V2000
    2.7833    0.2140   -0.3471 Cl  0  0  0  0  0  0  0  0  0  0  0  0
    1.0562    0.6228   -0.5000 C   0  0  0  0  0  0  0  0  0  0  0  0
    0.1966   -0.5655   -0.0653 C   0  0  0  0  0  0  0  0  0  0  0  0
   -1.2987   -0.2792   -0.2185 C   0  0  0  0  0  0  0  0  0  0  0  0
   -1.9152    1.0133    1.0923 Br  0  0  0  0  0  0  0  0  0  0  0  0
    0.8458    0.8809   -1.5597 H   0  0  0  0  0  0  0  0  0  0  0  0
    0.8475    1.5078    0.1369 H   0  0  0  0  0  0  0  0  0  0  0  0
    0.4182   -0.8240    0.9928 H   0  0  0  0  0  0  0  0  0  0  0  0
    0.4545   -1.4441   -0.6958 H   0  0  0  0  0  0  0  0  0  0  0  0
   -1.5213    0.0944   -1.2407 H   0  0  0  0  0  0  0  0  0  0  0  0
   -1.8669   -1.2204   -0.0618 H   0  0  0  0  0  0  0  0  0  0  0  0
  1  2  1  0
  2  3  1  0
  3  4  1  0
  4  5  1  0
  2  6  1  0
  2  7  1  0
  3  8  1  0
  3  9  1  0
  4 10  1  0
  4 11  1  0
M  END
$$$$
