CCCCC
     RDKit          3D

 17 16  0  0  0  0  0  0  0  0999 V2000
   -2.4052   -0.8053   -0.1782 C   0  0  0  0  0  0  0  0  0  0  0  0
   -1.3338    0.2801   -0.2279 C   0  0  0  0  0  0  0  0  0  0  0  0
    0.0573   -0.3017    0.0478 C   0  0  0  0  0  0  0  0  0  0  0  0
    1.1301    0.7921   -0.0031 C   0  0  0  0  0  0  0  0  0  0  0  0
    2.5169    0.2174    0.2708 C   0  0  0  0  0  0  0  0  0  0  0  0
   -3.3999   -0.3553   -0.3811 H   0  0  0  0  0  0  0  0  0  0  0  0
   -2.2035   -1.5821   -0.9462 H   0  0  0  0  0  0  0  0  0  0  0  0
   -2.4281   -1.2793    0.8263 H   0  0  0  0  0  0  0  0  0  0  0  0
   -1.3494    0.7547   -1.2333 H   0  0  0  0  0  0  0  0  0  0  0  0
   -1.5730    1.0562    0.5316 H   0  0  0  0  0  0  0  0  0  0  0  0
    0.0645   -0.7776    1.0534 H   0  0  0  0  0  0  0  0  0  0  0  0
    0.2883   -1.0795   -0.7134 H   0  0  0  0  0  0  0  0  0  0  0  0
    0.9074    1.5716    0.7579 H   0  0  0  0  0  0  0  0  0  0  0  0
    1.1310    1.2701   -1.0071 H   0  0  0  0  0  0  0  0  0  0  0  0
    3.2715    1.0309    0.2274 H   0  0  0  0  0  0  0  0  0  0  0  0
    2.5506   -0.2448    1.2804 H   0  0  0  0  0  0  0  0  0  0  0  0
    2.7752   -0.5476   -0.4921 H   0  0  0  0  0  0  0  0  0  0  0  0
  1  2  1  0
  2  3  1  0
  3  4  1  0
  4  5  1  0
  1  6  1  0
  1  7  1  0
  1  8  1  0
  2  9  1  0
  2 10  1  0
  3 11  1  0
  3 12  1  0
  4 13  1  0
  4 14  1  0
  5 15  1  0
  5 16  1  0
  5 17  1  0
M  END
$$$$
