CC1CNCCN1
     RDKit          3D

 19 19  0  0  1  0  0  0  0  0999 V2000
    2.2772   -0.1683   -0.2675 C   0  0  0  0  0  0  0  0  0  0  0  0
    0.9294    0.3738    0.2157 C   0  0  2  0  0  0  0  0  0  0  0  0
    0.1569   -0.7047    1.0198 C   0  0  0  0  0  0  0  0  0  0  0  0
   -0.8498   -1.3460    0.1684 N   0  0  0  0  0  0  0  0  0  0  0  0
   -1.8757   -0.3758   -0.2485 C   0  0  0  0  0  0  0  0  0  0  0  0
   -1.2643    0.9885   -0.6240 C   0  0  0  0  0  0  0  0  0  0  0  0
    0.1567    0.8379   -0.9532 N   0  0  0  0  0  0  0  0  0  0  0  0
    2.1251   -1.0492   -0.9276 H   0  0  0  0  0  0  0  0  0  0  0  0
    2.9061   -0.4663    0.5985 H   0  0  0  0  0  0  0  0  0  0  0  0
    2.8202    0.6162   -0.8365 H   0  0  0  0  0  0  0  0  0  0  0  0
    1.1334    1.2357    0.8923 H   0  0  0  0  0  0  0  0  0  0  0  0
    0.8468   -1.4783    1.4237 H   0  0  0  0  0  0  0  0  0  0  0  0
   -0.3397   -0.2310    1.8977 H   0  0  0  0  0  0  0  0  0  0  0  0
   -1.3196   -2.0974    0.7259 H   0  0  0  0  0  0  0  0  0  0  0  0
   -2.6253   -0.2339    0.5625 H   0  0  0  0  0  0  0  0  0  0  0  0
   -2.4089   -0.7909   -1.1306 H   0  0  0  0  0  0  0  0  0  0  0  0
   -1.8056    1.4086   -1.4996 H   0  0  0  0  0  0  0  0  0  0  0  0
   -1.3847    1.7038    0.2215 H   0  0  0  0  0  0  0  0  0  0  0  0
    0.5220    1.7772   -1.2384 H   0  0  0  0  0  0  0  0  0  0  0  0
  1  2  1  0
  2  3  1  0
  2  7  1  0
  3  4  1  0
  4  5  1  0
  5  6  1  0
  6  7  1  0
  1  8  1  0
  1  9  1  0
  1 10  1  0
  2 11  1  1
  3 12  1  0
  3 13  1  0
  4 14  1  0
  5 15  1  0
  5 16  1  0
  6 17  1  0
  6 18  1  0
  7 19  1  0
M  END
$$$$
