C1CCOC1
     RDKit          3D

 13 13  0  0  0  0  0  0  0  0999 V2000
    0.5744    0.8612    0.2358 C   0  0  0  0  0  0  0  0  0  0  0  0
   -0.8823    0.5896    0.0347 C   0  0  0  0  0  0  0  0  0  0  0  0
   -0.9522   -0.9230    0.0614 C   0  0  0  0  0  0  0  0  0  0  0  0
    0.3092   -1.4568   -0.2717 O   0  0  0  0  0  0  0  0  0  0  0  0
    1.2311   -0.3910   -0.3064 C   0  0  0  0  0  0  0  0  0  0  0  0
    0.7951    0.9673    1.3213 H   0  0  0  0  0  0  0  0  0  0  0  0
    0.9045    1.7724   -0.3091 H   0  0  0  0  0  0  0  0  0  0  0  0
   -1.2059    0.9680   -0.9604 H   0  0  0  0  0  0  0  0  0  0  0  0
   -1.5031    1.0479    0.8351 H   0  0  0  0  0  0  0  0  0  0  0  0
   -1.2303   -1.2703    1.0802 H   0  0  0  0  0  0  0  0  0  0  0  0
   -1.7158   -1.2887   -0.6578 H   0  0  0  0  0  0  0  0  0  0  0  0
    1.5479   -0.2257   -1.3592 H   0  0  0  0  0  0  0  0  0  0  0  0
    2.1275   -0.6508    0.2961 H   0  0  0  0  0  0  0  0  0  0  0  0
  1  2  1  0
  1  5  1  0
  2  3  1  0
  3  4  1  0
  4  5  1  0
  1  6  1  0
  1  7  1  0
  2  8  1  0
  2  9  1  0
  3 10  1  0
  3 11  1  0
  5 12  1  0
  5 13  1  0
M  END
$$$$
