C=CCCC
     RDKit          3D

 15 14  0  0  0  0  0  0  0  0999 V2000
   -2.0176   -0.3655    0.8026 C   0  0  0  0  0  0  0  0  0  0  0  0
   -0.9803    0.4689    0.9179 C   0  0  0  0  0  0  0  0  0  0  0  0
   -0.2350    0.9792   -0.2868 C   0  0  0  0  0  0  0  0  0  0  0  0
    0.5883   -0.1200   -0.9740 C   0  0  0  0  0  0  0  0  0  0  0  0
    1.7311   -0.6240   -0.0932 C   0  0  0  0  0  0  0  0  0  0  0  0
   -2.5420   -0.7052    1.6897 H   0  0  0  0  0  0  0  0  0  0  0  0
   -2.3520   -0.7109   -0.1709 H   0  0  0  0  0  0  0  0  0  0  0  0
   -0.6836    0.8116    1.9047 H   0  0  0  0  0  0  0  0  0  0  0  0
    0.4405    1.8050    0.0255 H   0  0  0  0  0  0  0  0  0  0  0  0
   -0.9619    1.4026   -1.0137 H   0  0  0  0  0  0  0  0  0  0  0  0
    1.0210    0.2945   -1.9101 H   0  0  0  0  0  0  0  0  0  0  0  0
   -0.0669   -0.9725   -1.2557 H   0  0  0  0  0  0  0  0  0  0  0  0
    1.3330   -1.1005    0.8275 H   0  0  0  0  0  0  0  0  0  0  0  0
    2.3237   -1.3791   -0.6514 H   0  0  0  0  0  0  0  0  0  0  0  0
    2.4017    0.2158    0.1879 H   0  0  0  0  0  0  0  0  0  0  0  0
  1  2  2  3
  2  3  1  0
  3  4  1  0
  4  5  1  0
  1  6  1  0
  1  7  1  0
  2  8  1  0
  3  9  1  0
  3 10  1  0
  4 11  1  0
  4 12  1  0
  5 13  1  0
  5 14  1  0
  5 15  1  0
M  END
$$$$
