CCCCBr
     RDKit          3D

 14 13  0  0  0  0  0  0  0  0999 V2000
   -1.9560    0.0675   -0.0821 C   0  0  0  0  0  0  0  0  0  0  0  0
   -0.5570    0.0620    0.5272 C   0  0  0  0  0  0  0  0  0  0  0  0
    0.5151   -0.1391   -0.5524 C   0  0  0  0  0  0  0  0  0  0  0  0
    1.9250   -0.1850    0.0410 C   0  0  0  0  0  0  0  0  0  0  0  0
    2.4889    1.5609    0.6757 Br  0  0  0  0  0  0  0  0  0  0  0  0
   -2.1608   -0.9002   -0.5877 H   0  0  0  0  0  0  0  0  0  0  0  0
   -2.0528    0.8940   -0.8180 H   0  0  0  0  0  0  0  0  0  0  0  0
   -2.7100    0.2155    0.7195 H   0  0  0  0  0  0  0  0  0  0  0  0
   -0.3939    1.0281    1.0510 H   0  0  0  0  0  0  0  0  0  0  0  0
   -0.4948   -0.7584    1.2751 H   0  0  0  0  0  0  0  0  0  0  0  0
    0.3250   -1.1005   -1.0779 H   0  0  0  0  0  0  0  0  0  0  0  0
    0.4584    0.6797   -1.3026 H   0  0  0  0  0  0  0  0  0  0  0  0
    1.9730   -0.9163    0.8758 H   0  0  0  0  0  0  0  0  0  0  0  0
    2.6399   -0.5084   -0.7447 H   0  0  0  0  0  0  0  0  0  0  0  0
  1  2  1  0
  2  3  1  0
  3  4  1  0
  4  5  1  0
  1  6  1  0
  1  7  1  0
  1  8  1  0
  2  9  1  0
  2 10  1  0
  3 11  1  0
  3 12  1  0
  4 13  1  0
  4 14  1  0
M  END
$$$$
