BrCCCCC
     RDKit          3D

 17 16  0  0  0  0  0  0  0  0999 V2000
    3.3695    1.1491   -0.1068 Br  0  0  0  0  0  0  0  0  0  0  0  0
    2.3496   -0.5014   -0.0353 C   0  0  0  0  0  0  0  0  0  0  0  0
    0.9654   -0.2816    0.5799 C   0  0  0  0  0  0  0  0  0  0  0  0
    0.0306    0.4866   -0.3688 C   0  0  0  0  0  0  0  0  0  0  0  0
   -1.3291    0.8030    0.2730 C   0  0  0  0  0  0  0  0  0  0  0  0
   -2.2028   -0.4384    0.4517 C   0  0  0  0  0  0  0  0  0  0  0  0
    2.2589   -0.9264   -1.0576 H   0  0  0  0  0  0  0  0  0  0  0  0
    2.9159   -1.2226    0.5911 H   0  0  0  0  0  0  0  0  0  0  0  0
    0.5279   -1.2782    0.8007 H   0  0  0  0  0  0  0  0  0  0  0  0
    1.0738    0.2684    1.5400 H   0  0  0  0  0  0  0  0  0  0  0  0
    0.5057    1.4513   -0.6483 H   0  0  0  0  0  0  0  0  0  0  0  0
   -0.1217   -0.0957   -1.3041 H   0  0  0  0  0  0  0  0  0  0  0  0
   -1.8703    1.5164   -0.3858 H   0  0  0  0  0  0  0  0  0  0  0  0
   -1.1819    1.3002    1.2563 H   0  0  0  0  0  0  0  0  0  0  0  0
   -2.3159   -0.9769   -0.5131 H   0  0  0  0  0  0  0  0  0  0  0  0
   -3.2100   -0.1322    0.8048 H   0  0  0  0  0  0  0  0  0  0  0  0
   -1.7657   -1.1217    1.2087 H   0  0  0  0  0  0  0  0  0  0  0  0
  1  2  1  0
  2  3  1  0
  3  4  1  0
  4  5  1  0
  5  6  1  0
  2  7  1  0
  2  8  1  0
  3  9  1  0
  3 10  1  0
  4 11  1  0
  4 12  1  0
  5 13  1  0
  5 14  1  0
  6 15  1  0
  6 16  1  0
  6 17  1  0
M  END
$$$$
