OC(CCC(O)=O)=O
     RDKit          3D

 14 13  0  0  0  0  0  0  0  0999 V2000
    2.4238   -0.2791   -1.4978 O   0  0  0  0  0  0  0  0  0  0  0  0
    1.8653   -0.4440   -0.2342 C   0  0  0  0  0  0  0  0  0  0  0  0
    0.6836    0.3788    0.1710 C   0  0  0  0  0  0  0  0  0  0  0  0
   -0.6167   -0.3046   -0.2589 C   0  0  0  0  0  0  0  0  0  0  0  0
   -1.8071    0.5026    0.1568 C   0  0  0  0  0  0  0  0  0  0  0  0
   -2.7129   -0.0193    1.0749 O   0  0  0  0  0  0  0  0  0  0  0  0
   -1.9957    1.6494   -0.3308 O   0  0  0  0  0  0  0  0  0  0  0  0
    2.3297   -1.3128    0.5516 O   0  0  0  0  0  0  0  0  0  0  0  0
    3.2141   -0.8396   -1.7935 H   0  0  0  0  0  0  0  0  0  0  0  0
    0.7614    1.3801   -0.3058 H   0  0  0  0  0  0  0  0  0  0  0  0
    0.6904    0.5179    1.2746 H   0  0  0  0  0  0  0  0  0  0  0  0
   -0.6773   -1.3122    0.2080 H   0  0  0  0  0  0  0  0  0  0  0  0
   -0.6337   -0.4303   -1.3635 H   0  0  0  0  0  0  0  0  0  0  0  0
   -3.5249    0.5132    1.3636 H   0  0  0  0  0  0  0  0  0  0  0  0
  1  2  1  0
  2  3  1  0
  2  8  2  0
  3  4  1  0
  4  5  1  0
  5  6  1  0
  5  7  2  0
  1  9  1  0
  3 10  1  0
  3 11  1  0
  4 12  1  0
  4 13  1  0
  6 14  1  0
M  END
$$$$
