CC(CCCCC)=O
     RDKit          3D

 22 21  0  0  0  0  0  0  0  0999 V2000
    3.5795    0.2729   -0.3830 C   0  0  0  0  0  0  0  0  0  0  0  0
    2.3713    0.8617    0.2802 C   0  0  0  0  0  0  0  0  0  0  0  0
    1.3227   -0.0309    0.8857 C   0  0  0  0  0  0  0  0  0  0  0  0
   -0.0027    0.0913    0.1257 C   0  0  0  0  0  0  0  0  0  0  0  0
   -1.0734   -0.8246    0.7371 C   0  0  0  0  0  0  0  0  0  0  0  0
   -2.3817   -0.8229   -0.0685 C   0  0  0  0  0  0  0  0  0  0  0  0
   -3.1499    0.4928    0.0536 C   0  0  0  0  0  0  0  0  0  0  0  0
    2.2427    2.0755    0.3387 O   0  0  0  0  0  0  0  0  0  0  0  0
    4.2436    1.0740   -0.7723 H   0  0  0  0  0  0  0  0  0  0  0  0
    3.2619   -0.3719   -1.2289 H   0  0  0  0  0  0  0  0  0  0  0  0
    4.1468   -0.3380    0.3499 H   0  0  0  0  0  0  0  0  0  0  0  0
    1.1772    0.2549    1.9502 H   0  0  0  0  0  0  0  0  0  0  0  0
    1.6679   -1.0879    0.8577 H   0  0  0  0  0  0  0  0  0  0  0  0
   -0.3470    1.1469    0.1680 H   0  0  0  0  0  0  0  0  0  0  0  0
    0.1600   -0.1877   -0.9390 H   0  0  0  0  0  0  0  0  0  0  0  0
   -0.6858   -1.8668    0.7575 H   0  0  0  0  0  0  0  0  0  0  0  0
   -1.2774   -0.5205    1.7873 H   0  0  0  0  0  0  0  0  0  0  0  0
   -3.0301   -1.6406    0.3143 H   0  0  0  0  0  0  0  0  0  0  0  0
   -2.1724   -1.0344   -1.1397 H   0  0  0  0  0  0  0  0  0  0  0  0
   -4.1356    0.3918   -0.4475 H   0  0  0  0  0  0  0  0  0  0  0  0
   -2.5964    1.3189   -0.4387 H   0  0  0  0  0  0  0  0  0  0  0  0
   -3.3213    0.7457    1.1215 H   0  0  0  0  0  0  0  0  0  0  0  0
  1  2  1  0
  2  3  1  0
  2  8  2  0
  3  4  1  0
  4  5  1  0
  5  6  1  0
  6  7  1  0
  1  9  1  0
  1 10  1  0
  1 11  1  0
  3 12  1  0
  3 13  1  0
  4 14  1  0
  4 15  1  0
  5 16  1  0
  5 17  1  0
  6 18  1  0
  6 19  1  0
  7 20  1  0
  7 21  1  0
  7 22  1  0
M  END
$$$$
