C1CNCCN1
     RDKit          3D

 16 16  0  0  0  0  0  0  0  0999 V2000
   -1.4184    0.1088   -0.1601 C   0  0  0  0  0  0  0  0  0  0  0  0
   -0.7595   -1.0655    0.5807 C   0  0  0  0  0  0  0  0  0  0  0  0
    0.5934   -1.3202    0.0699 N   0  0  0  0  0  0  0  0  0  0  0  0
    1.4184   -0.1088    0.1601 C   0  0  0  0  0  0  0  0  0  0  0  0
    0.7595    1.0655   -0.5807 C   0  0  0  0  0  0  0  0  0  0  0  0
   -0.5934    1.3202   -0.0699 N   0  0  0  0  0  0  0  0  0  0  0  0
   -1.5777   -0.1587   -1.2280 H   0  0  0  0  0  0  0  0  0  0  0  0
   -2.4155    0.3104    0.2872 H   0  0  0  0  0  0  0  0  0  0  0  0
   -0.7149   -0.8484    1.6708 H   0  0  0  0  0  0  0  0  0  0  0  0
   -1.3799   -1.9776    0.4458 H   0  0  0  0  0  0  0  0  0  0  0  0
    0.5255   -1.6075   -0.9353 H   0  0  0  0  0  0  0  0  0  0  0  0
    1.5777    0.1587    1.2280 H   0  0  0  0  0  0  0  0  0  0  0  0
    2.4155   -0.3104   -0.2872 H   0  0  0  0  0  0  0  0  0  0  0  0
    1.3799    1.9776   -0.4458 H   0  0  0  0  0  0  0  0  0  0  0  0
    0.7149    0.8484   -1.6708 H   0  0  0  0  0  0  0  0  0  0  0  0
   -0.5255    1.6075    0.9353 H   0  0  0  0  0  0  0  0  0  0  0  0
  1  2  1  0
  1  6  1  0
  2  3  1  0
  3  4  1  0
  4  5  1  0
  5  6  1  0
  1  7  1  0
  1  8  1  0
  2  9  1  0
  2 10  1  0
  3 11  1  0
  4 12  1  0
  4 13  1  0
  5 14  1  0
  5 15  1  0
  6 16  1  0
M  END
$$$$
