CCCCCCCCCC(OC)=O
     RDKit          3D

 35 34  0  0  0  0  0  0  0  0999 V2000
   -4.8222   -0.7095   -0.6733 C   0  0  0  0  0  0  0  0  0  0  0  0
   -3.9139    0.5152   -0.5718 C   0  0  0  0  0  0  0  0  0  0  0  0
   -3.3370    0.7183    0.8401 C   0  0  0  0  0  0  0  0  0  0  0  0
   -2.4556   -0.4373    1.3566 C   0  0  0  0  0  0  0  0  0  0  0  0
   -1.2589   -0.8018    0.4593 C   0  0  0  0  0  0  0  0  0  0  0  0
   -0.2590    0.3560    0.2984 C   0  0  0  0  0  0  0  0  0  0  0  0
    0.9690   -0.0369   -0.5389 C   0  0  0  0  0  0  0  0  0  0  0  0
    1.9623   -0.9158    0.2417 C   0  0  0  0  0  0  0  0  0  0  0  0
    3.2172   -1.2376   -0.5811 C   0  0  0  0  0  0  0  0  0  0  0  0
    4.0613   -0.0207   -0.8109 C   0  0  0  0  0  0  0  0  0  0  0  0
    4.6122    0.6533    0.2830 O   0  0  0  0  0  0  0  0  0  0  0  0
    5.4087    1.8228    0.1397 C   0  0  0  0  0  0  0  0  0  0  0  0
    4.2718    0.3829   -1.9874 O   0  0  0  0  0  0  0  0  0  0  0  0
   -4.2333   -1.6440   -0.5653 H   0  0  0  0  0  0  0  0  0  0  0  0
   -5.6102   -0.6747    0.1086 H   0  0  0  0  0  0  0  0  0  0  0  0
   -5.3123   -0.7239   -1.6696 H   0  0  0  0  0  0  0  0  0  0  0  0
   -4.5135    1.4142   -0.8320 H   0  0  0  0  0  0  0  0  0  0  0  0
   -3.0987    0.4431   -1.3218 H   0  0  0  0  0  0  0  0  0  0  0  0
   -2.7558    1.6643    0.8579 H   0  0  0  0  0  0  0  0  0  0  0  0
   -4.1796    0.8584    1.5520 H   0  0  0  0  0  0  0  0  0  0  0  0
   -2.0746   -0.1622    2.3643 H   0  0  0  0  0  0  0  0  0  0  0  0
   -3.0846   -1.3422    1.4969 H   0  0  0  0  0  0  0  0  0  0  0  0
   -0.7482   -1.6657    0.9328 H   0  0  0  0  0  0  0  0  0  0  0  0
   -1.6136   -1.1424   -0.5361 H   0  0  0  0  0  0  0  0  0  0  0  0
   -0.7621    1.1960   -0.2254 H   0  0  0  0  0  0  0  0  0  0  0  0
    0.0649    0.7243    1.2965 H   0  0  0  0  0  0  0  0  0  0  0  0
    0.6439   -0.5603   -1.4648 H   0  0  0  0  0  0  0  0  0  0  0  0
    1.4822    0.9000   -0.8467 H   0  0  0  0  0  0  0  0  0  0  0  0
    1.4774   -1.8784    0.5065 H   0  0  0  0  0  0  0  0  0  0  0  0
    2.2548   -0.4120    1.1892 H   0  0  0  0  0  0  0  0  0  0  0  0
    3.8272   -1.9862   -0.0319 H   0  0  0  0  0  0  0  0  0  0  0  0
    2.9220   -1.6916   -1.5526 H   0  0  0  0  0  0  0  0  0  0  0  0
    4.8193    2.6259   -0.3516 H   0  0  0  0  0  0  0  0  0  0  0  0
    5.7265    2.1726    1.1432 H   0  0  0  0  0  0  0  0  0  0  0  0
    6.3120    1.5961   -0.4654 H   0  0  0  0  0  0  0  0  0  0  0  0
  1  2  1  0
  2  3  1  0
  3  4  1  0
  4  5  1  0
  5  6  1  0
  6  7  1  0
  7  8  1  0
  8  9  1  0
  9 10  1  0
 10 13  2  0
 10 11  1  0
 11 12  1  0
  1 14  1  0
  1 15  1  0
  1 16  1  0
  2 17  1  0
  2 18  1  0
  3 19  1  0
  3 20  1  0
  4 21  1  0
  4 22  1  0
  5 23  1  0
  5 24  1  0
  6 25  1  0
  6 26  1  0
  7 27  1  0
  7 28  1  0
  8 29  1  0
  8 30  1  0
  9 31  1  0
  9 32  1  0
 12 33  1  0
 12 34  1  0
 12 35  1  0
M  END
$$$$
