C1COCCN1
     RDKit          3D

 15 15  0  0  0  0  0  0  0  0999 V2000
   -1.1163    0.7595   -0.3613 C   0  0  0  0  0  0  0  0  0  0  0  0
   -1.0552   -0.7562   -0.6028 C   0  0  0  0  0  0  0  0  0  0  0  0
    0.2573   -1.1557   -0.9463 O   0  0  0  0  0  0  0  0  0  0  0  0
    1.1393   -0.8582    0.1184 C   0  0  0  0  0  0  0  0  0  0  0  0
    1.1723    0.6531    0.3908 C   0  0  0  0  0  0  0  0  0  0  0  0
   -0.1734    1.1573    0.6914 N   0  0  0  0  0  0  0  0  0  0  0  0
   -0.8736    1.2992   -1.3030 H   0  0  0  0  0  0  0  0  0  0  0  0
   -2.1477    1.0452   -0.0616 H   0  0  0  0  0  0  0  0  0  0  0  0
   -1.7331   -1.0101   -1.4446 H   0  0  0  0  0  0  0  0  0  0  0  0
   -1.4187   -1.3105    0.2925 H   0  0  0  0  0  0  0  0  0  0  0  0
    2.1598   -1.1911   -0.1652 H   0  0  0  0  0  0  0  0  0  0  0  0
    0.8542   -1.4161    1.0394 H   0  0  0  0  0  0  0  0  0  0  0  0
    1.5805    1.1851   -0.4965 H   0  0  0  0  0  0  0  0  0  0  0  0
    1.8455    0.8596    1.2507 H   0  0  0  0  0  0  0  0  0  0  0  0
   -0.4908    0.7390    1.5980 H   0  0  0  0  0  0  0  0  0  0  0  0
  1  2  1  0
  1  6  1  0
  2  3  1  0
  3  4  1  0
  4  5  1  0
  5  6  1  0
  1  7  1  0
  1  8  1  0
  2  9  1  0
  2 10  1  0
  4 11  1  0
  4 12  1  0
  5 13  1  0
  5 14  1  0
  6 15  1  0
M  END
$$$$
