CC(CCC(C)C)=O
     RDKit          3D

 22 21  0  0  0  0  0  0  0  0999 V2000
    3.3419    0.4607    0.8127 C   0  0  0  0  0  0  0  0  0  0  0  0
    2.3487   -0.3927    0.0807 C   0  0  0  0  0  0  0  0  0  0  0  0
    1.0629    0.1817   -0.4544 C   0  0  0  0  0  0  0  0  0  0  0  0
   -0.1441   -0.4011    0.2959 C   0  0  0  0  0  0  0  0  0  0  0  0
   -1.4776    0.2725   -0.0997 C   0  0  0  0  0  0  0  0  0  0  0  0
   -2.5938   -0.1722    0.8544 C   0  0  0  0  0  0  0  0  0  0  0  0
   -1.8735   -0.0472   -1.5492 C   0  0  0  0  0  0  0  0  0  0  0  0
    2.5954   -1.5769   -0.0912 O   0  0  0  0  0  0  0  0  0  0  0  0
    3.5015    0.0511    1.8321 H   0  0  0  0  0  0  0  0  0  0  0  0
    2.9874    1.5085    0.9053 H   0  0  0  0  0  0  0  0  0  0  0  0
    4.3077    0.4588    0.2654 H   0  0  0  0  0  0  0  0  0  0  0  0
    0.9984   -0.0607   -1.5358 H   0  0  0  0  0  0  0  0  0  0  0  0
    1.0630    1.2883   -0.3520 H   0  0  0  0  0  0  0  0  0  0  0  0
   -0.2060   -1.4967    0.1113 H   0  0  0  0  0  0  0  0  0  0  0  0
    0.0222   -0.2513    1.3864 H   0  0  0  0  0  0  0  0  0  0  0  0
   -1.3698    1.3755    0.0001 H   0  0  0  0  0  0  0  0  0  0  0  0
   -2.3372    0.0999    1.9005 H   0  0  0  0  0  0  0  0  0  0  0  0
   -3.5476    0.3351    0.5947 H   0  0  0  0  0  0  0  0  0  0  0  0
   -2.7442   -1.2718    0.7958 H   0  0  0  0  0  0  0  0  0  0  0  0
   -1.9165   -1.1455   -1.7119 H   0  0  0  0  0  0  0  0  0  0  0  0
   -1.1484    0.3979   -2.2610 H   0  0  0  0  0  0  0  0  0  0  0  0
   -2.8702    0.3863   -1.7799 H   0  0  0  0  0  0  0  0  0  0  0  0
  1  2  1  0
  2  3  1  0
  2  8  2  0
  3  4  1  0
  4  5  1  0
  5  7  1  0
  5  6  1  0
  1  9  1  0
  1 10  1  0
  1 11  1  0
  3 12  1  0
  3 13  1  0
  4 14  1  0
  4 15  1  0
  5 16  1  0
  6 17  1  0
  6 18  1  0
  6 19  1  0
  7 20  1  0
  7 21  1  0
  7 22  1  0
M  END
$$$$
