CC=CC=CC(O)=O
     RDKit          3D

 16 15  0  0  0  0  0  0  0  0999 V2000
    2.6093    0.2306   -0.5829 C   0  0  0  0  0  0  0  0  0  0  0  0
    1.5813    0.9034    0.2753 C   0  0  0  0  0  0  0  0  0  0  0  0
    0.3432    0.4292    0.4632 C   0  0  0  0  0  0  0  0  0  0  0  0
   -0.1375   -0.8424   -0.1241 C   0  0  0  0  0  0  0  0  0  0  0  0
   -1.4229   -1.2216   -0.1751 C   0  0  0  0  0  0  0  0  0  0  0  0
   -2.5855   -0.3847    0.1786 C   0  0  0  0  0  0  0  0  0  0  0  0
   -2.5132    1.0051    0.1629 O   0  0  0  0  0  0  0  0  0  0  0  0
   -3.6844   -0.9432    0.4373 O   0  0  0  0  0  0  0  0  0  0  0  0
    2.2286    0.1210   -1.6204 H   0  0  0  0  0  0  0  0  0  0  0  0
    2.8614   -0.7672   -0.1664 H   0  0  0  0  0  0  0  0  0  0  0  0
    3.5338    0.8447   -0.6077 H   0  0  0  0  0  0  0  0  0  0  0  0
    1.8555    1.8336    0.7583 H   0  0  0  0  0  0  0  0  0  0  0  0
   -0.3075    0.9969    1.1130 H   0  0  0  0  0  0  0  0  0  0  0  0
    0.5951   -1.5512   -0.4895 H   0  0  0  0  0  0  0  0  0  0  0  0
   -1.6337   -2.2253   -0.5251 H   0  0  0  0  0  0  0  0  0  0  0  0
   -3.3235    1.5710    0.3849 H   0  0  0  0  0  0  0  0  0  0  0  0
  1  2  1  0
  2  3  2  0
  3  4  1  0
  4  5  2  0
  5  6  1  0
  6  7  1  0
  6  8  2  0
  1  9  1  0
  1 10  1  0
  1 11  1  0
  2 12  1  0
  3 13  1  0
  4 14  1  0
  5 15  1  0
  7 16  1  0
M  END
$$$$
