C1CCCCC1
     RDKit          3D

 18 18  0  0  0  0  0  0  0  0999 V2000
   -0.6572    1.3208   -0.1028 C   0  0  0  0  0  0  0  0  0  0  0  0
    0.8132    1.1942    0.3157 C   0  0  0  0  0  0  0  0  0  0  0  0
    1.4497   -0.0659   -0.2844 C   0  0  0  0  0  0  0  0  0  0  0  0
    0.6572   -1.3208    0.1028 C   0  0  0  0  0  0  0  0  0  0  0  0
   -0.8132   -1.1942   -0.3157 C   0  0  0  0  0  0  0  0  0  0  0  0
   -1.4497    0.0659    0.2844 C   0  0  0  0  0  0  0  0  0  0  0  0
   -1.1057    2.2066    0.3963 H   0  0  0  0  0  0  0  0  0  0  0  0
   -0.7204    1.4782   -1.2021 H   0  0  0  0  0  0  0  0  0  0  0  0
    1.3722    2.0892   -0.0327 H   0  0  0  0  0  0  0  0  0  0  0  0
    0.8839    1.1563    1.4251 H   0  0  0  0  0  0  0  0  0  0  0  0
    2.4930   -0.1620    0.0860 H   0  0  0  0  0  0  0  0  0  0  0  0
    1.4865    0.0256   -1.3924 H   0  0  0  0  0  0  0  0  0  0  0  0
    0.7204   -1.4782    1.2021 H   0  0  0  0  0  0  0  0  0  0  0  0
    1.1057   -2.2066   -0.3963 H   0  0  0  0  0  0  0  0  0  0  0  0
   -0.8839   -1.1563   -1.4251 H   0  0  0  0  0  0  0  0  0  0  0  0
   -1.3722   -2.0892    0.0327 H   0  0  0  0  0  0  0  0  0  0  0  0
   -1.4865   -0.0256    1.3924 H   0  0  0  0  0  0  0  0  0  0  0  0
   -2.4930    0.1620   -0.0860 H   0  0  0  0  0  0  0  0  0  0  0  0
  1  6  1  0
  1  2  1  0
  2  3  1  0
  3  4  1  0
  4  5  1  0
  5  6  1  0
  1  7  1  0
  1  8  1  0
  2  9  1  0
  2 10  1  0
  3 11  1  0
  3 12  1  0
  4 13  1  0
  4 14  1  0
  5 15  1  0
  5 16  1  0
  6 17  1  0
  6 18  1  0
M  END
$$$$
