BrCCCCCC
     RDKit          3D

 20 19  0  0  0  0  0  0  0  0999 V2000
    4.3852    0.7261   -0.1670 Br  0  0  0  0  0  0  0  0  0  0  0  0
    2.4506    0.8203   -0.1183 C   0  0  0  0  0  0  0  0  0  0  0  0
    1.8820   -0.4289    0.5579 C   0  0  0  0  0  0  0  0  0  0  0  0
    0.3586   -0.3578    0.7460 C   0  0  0  0  0  0  0  0  0  0  0  0
   -0.4054   -0.4496   -0.5865 C   0  0  0  0  0  0  0  0  0  0  0  0
   -1.9179   -0.6310   -0.3862 C   0  0  0  0  0  0  0  0  0  0  0  0
   -2.5914    0.6166    0.1847 C   0  0  0  0  0  0  0  0  0  0  0  0
    2.1556    1.7317    0.4439 H   0  0  0  0  0  0  0  0  0  0  0  0
    2.0844    0.8998   -1.1627 H   0  0  0  0  0  0  0  0  0  0  0  0
    2.3505   -0.5317    1.5609 H   0  0  0  0  0  0  0  0  0  0  0  0
    2.1505   -1.3311   -0.0337 H   0  0  0  0  0  0  0  0  0  0  0  0
    0.0547   -1.2065    1.3969 H   0  0  0  0  0  0  0  0  0  0  0  0
    0.0977    0.5845    1.2738 H   0  0  0  0  0  0  0  0  0  0  0  0
   -0.2233    0.4606   -1.1971 H   0  0  0  0  0  0  0  0  0  0  0  0
   -0.0293   -1.3243   -1.1608 H   0  0  0  0  0  0  0  0  0  0  0  0
   -2.1149   -1.4987    0.2802 H   0  0  0  0  0  0  0  0  0  0  0  0
   -2.3783   -0.8549   -1.3729 H   0  0  0  0  0  0  0  0  0  0  0  0
   -2.2530    0.8044    1.2247 H   0  0  0  0  0  0  0  0  0  0  0  0
   -2.3647    1.5034   -0.4447 H   0  0  0  0  0  0  0  0  0  0  0  0
   -3.6915    0.4670    0.2009 H   0  0  0  0  0  0  0  0  0  0  0  0
  1  2  1  0
  2  3  1  0
  3  4  1  0
  4  5  1  0
  5  6  1  0
  6  7  1  0
  2  8  1  0
  2  9  1  0
  3 10  1  0
  3 11  1  0
  4 12  1  0
  4 13  1  0
  5 14  1  0
  5 15  1  0
  6 16  1  0
  6 17  1  0
  7 18  1  0
  7 19  1  0
  7 20  1  0
M  END
$$$$
