CCCCCCN
     RDKit          3D

 22 21  0  0  0  0  0  0  0  0999 V2000
   -2.6786    1.1767   -0.4804 C   0  0  0  0  0  0  0  0  0  0  0  0
   -2.4236   -0.1227    0.2830 C   0  0  0  0  0  0  0  0  0  0  0  0
   -1.1694   -0.8636   -0.2058 C   0  0  0  0  0  0  0  0  0  0  0  0
    0.1308   -0.1447    0.1844 C   0  0  0  0  0  0  0  0  0  0  0  0
    1.3583   -0.9732   -0.2216 C   0  0  0  0  0  0  0  0  0  0  0  0
    2.6739   -0.3298    0.2330 C   0  0  0  0  0  0  0  0  0  0  0  0
    2.9480    0.8903   -0.5224 N   0  0  0  0  0  0  0  0  0  0  0  0
   -2.7094    0.9860   -1.5742 H   0  0  0  0  0  0  0  0  0  0  0  0
   -3.6562    1.6012   -0.1688 H   0  0  0  0  0  0  0  0  0  0  0  0
   -1.8912    1.9257   -0.2568 H   0  0  0  0  0  0  0  0  0  0  0  0
   -2.3415    0.0936    1.3704 H   0  0  0  0  0  0  0  0  0  0  0  0
   -3.3023   -0.7883    0.1388 H   0  0  0  0  0  0  0  0  0  0  0  0
   -1.2144   -0.9926   -1.3097 H   0  0  0  0  0  0  0  0  0  0  0  0
   -1.1714   -1.8771    0.2520 H   0  0  0  0  0  0  0  0  0  0  0  0
    0.1453    0.0206    1.2842 H   0  0  0  0  0  0  0  0  0  0  0  0
    0.1721    0.8402   -0.3253 H   0  0  0  0  0  0  0  0  0  0  0  0
    1.3750   -1.1069   -1.3257 H   0  0  0  0  0  0  0  0  0  0  0  0
    1.2870   -1.9806    0.2440 H   0  0  0  0  0  0  0  0  0  0  0  0
    3.4956   -1.0580    0.0545 H   0  0  0  0  0  0  0  0  0  0  0  0
    2.6451   -0.1120    1.3244 H   0  0  0  0  0  0  0  0  0  0  0  0
    3.9478    1.1489   -0.3575 H   0  0  0  0  0  0  0  0  0  0  0  0
    2.3790    1.6662   -0.1132 H   0  0  0  0  0  0  0  0  0  0  0  0
  1  2  1  0
  2  3  1  0
  3  4  1  0
  4  5  1  0
  5  6  1  0
  6  7  1  0
  1  8  1  0
  1  9  1  0
  1 10  1  0
  2 11  1  0
  2 12  1  0
  3 13  1  0
  3 14  1  0
  4 15  1  0
  4 16  1  0
  5 17  1  0
  5 18  1  0
  6 19  1  0
  6 20  1  0
  7 21  1  0
  7 22  1  0
M  END
$$$$
