CCCCOCCO
     RDKit          3D

 22 21  0  0  0  0  0  0  0  0999 V2000
   -3.3490    0.0322    0.1961 C   0  0  0  0  0  0  0  0  0  0  0  0
   -2.4624   -1.1808   -0.0843 C   0  0  0  0  0  0  0  0  0  0  0  0
   -1.0506   -1.0343    0.5044 C   0  0  0  0  0  0  0  0  0  0  0  0
   -0.2057    0.0090   -0.2311 C   0  0  0  0  0  0  0  0  0  0  0  0
    1.1072   -0.0175    0.2880 O   0  0  0  0  0  0  0  0  0  0  0  0
    1.9008    0.9370   -0.3857 C   0  0  0  0  0  0  0  0  0  0  0  0
    3.3171    0.9018    0.1745 C   0  0  0  0  0  0  0  0  0  0  0  0
    3.8845   -0.3593   -0.0474 O   0  0  0  0  0  0  0  0  0  0  0  0
   -4.3838   -0.1808   -0.1457 H   0  0  0  0  0  0  0  0  0  0  0  0
   -3.3752    0.2517    1.2847 H   0  0  0  0  0  0  0  0  0  0  0  0
   -2.9813    0.9235   -0.3530 H   0  0  0  0  0  0  0  0  0  0  0  0
   -2.9412   -2.0743    0.3720 H   0  0  0  0  0  0  0  0  0  0  0  0
   -2.4045   -1.3547   -1.1808 H   0  0  0  0  0  0  0  0  0  0  0  0
   -0.5393   -2.0188    0.4281 H   0  0  0  0  0  0  0  0  0  0  0  0
   -1.1141   -0.7721    1.5833 H   0  0  0  0  0  0  0  0  0  0  0  0
   -0.1999   -0.2375   -1.3179 H   0  0  0  0  0  0  0  0  0  0  0  0
   -0.6591    1.0141   -0.0785 H   0  0  0  0  0  0  0  0  0  0  0  0
    1.9480    0.7173   -1.4771 H   0  0  0  0  0  0  0  0  0  0  0  0
    1.4947    1.9633   -0.2345 H   0  0  0  0  0  0  0  0  0  0  0  0
    3.9279    1.6827   -0.3313 H   0  0  0  0  0  0  0  0  0  0  0  0
    3.2882    1.1187    1.2659 H   0  0  0  0  0  0  0  0  0  0  0  0
    4.7978   -0.3212    0.3390 H   0  0  0  0  0  0  0  0  0  0  0  0
  1  2  1  0
  2  3  1  0
  3  4  1  0
  4  5  1  0
  5  6  1  0
  6  7  1  0
  7  8  1  0
  1  9  1  0
  1 10  1  0
  1 11  1  0
  2 12  1  0
  2 13  1  0
  3 14  1  0
  3 15  1  0
  4 16  1  0
  4 17  1  0
  6 18  1  0
  6 19  1  0
  7 20  1  0
  7 21  1  0
  8 22  1  0
M  END
$$$$
