CCCCCCCC
     RDKit          3D

 26 25  0  0  0  0  0  0  0  0999 V2000
    3.4644    0.9984    0.3622 C   0  0  0  0  0  0  0  0  0  0  0  0
    2.3175    0.0177    0.5891 C   0  0  0  0  0  0  0  0  0  0  0  0
    1.7021   -0.4318   -0.7439 C   0  0  0  0  0  0  0  0  0  0  0  0
    0.6663   -1.5583   -0.5770 C   0  0  0  0  0  0  0  0  0  0  0  0
   -0.5618   -1.1913    0.2759 C   0  0  0  0  0  0  0  0  0  0  0  0
   -1.3845   -0.0405   -0.3220 C   0  0  0  0  0  0  0  0  0  0  0  0
   -2.6896    0.1630    0.4563 C   0  0  0  0  0  0  0  0  0  0  0  0
   -3.5029    1.3170   -0.1227 C   0  0  0  0  0  0  0  0  0  0  0  0
    3.8802    1.3172    1.3413 H   0  0  0  0  0  0  0  0  0  0  0  0
    3.1011    1.8977   -0.1795 H   0  0  0  0  0  0  0  0  0  0  0  0
    4.2740    0.5170   -0.2267 H   0  0  0  0  0  0  0  0  0  0  0  0
    1.5479    0.5210    1.2118 H   0  0  0  0  0  0  0  0  0  0  0  0
    2.7036   -0.8650    1.1439 H   0  0  0  0  0  0  0  0  0  0  0  0
    2.5124   -0.8167   -1.4014 H   0  0  0  0  0  0  0  0  0  0  0  0
    1.2472    0.4367   -1.2655 H   0  0  0  0  0  0  0  0  0  0  0  0
    1.1653   -2.4391   -0.1171 H   0  0  0  0  0  0  0  0  0  0  0  0
    0.3212   -1.8734   -1.5860 H   0  0  0  0  0  0  0  0  0  0  0  0
   -0.2505   -0.9387    1.3116 H   0  0  0  0  0  0  0  0  0  0  0  0
   -1.2054   -2.0958    0.3423 H   0  0  0  0  0  0  0  0  0  0  0  0
   -0.7941    0.8998   -0.2799 H   0  0  0  0  0  0  0  0  0  0  0  0
   -1.6218   -0.2671   -1.3849 H   0  0  0  0  0  0  0  0  0  0  0  0
   -3.3016   -0.7643    0.4126 H   0  0  0  0  0  0  0  0  0  0  0  0
   -2.4598    0.3837    1.5216 H   0  0  0  0  0  0  0  0  0  0  0  0
   -3.7659    1.1104   -1.1821 H   0  0  0  0  0  0  0  0  0  0  0  0
   -4.4410    1.4391    0.4587 H   0  0  0  0  0  0  0  0  0  0  0  0
   -2.9243    2.2637   -0.0660 H   0  0  0  0  0  0  0  0  0  0  0  0
  1  2  1  0
  2  3  1  0
  3  4  1  0
  4  5  1  0
  5  6  1  0
  6  7  1  0
  7  8  1  0
  1  9  1  0
  1 10  1  0
  1 11  1  0
  2 12  1  0
  2 13  1  0
  3 14  1  0
  3 15  1  0
  4 16  1  0
  4 17  1  0
  5 18  1  0
  5 19  1  0
  6 20  1  0
  6 21  1  0
  7 22  1  0
  7 23  1  0
  8 24  1  0
  8 25  1  0
  8 26  1  0
M  END
$$$$
