O=C(SCCC)N(CCCC)CC
     RDKit          3D

 34 33  0  0  0  0  0  0  0  0999 V2000
    0.8833    0.3871    1.9661 O   0  0  0  0  0  0  0  0  0  0  0  0
    0.7449   -0.3535    0.9557 C   0  0  0  0  0  0  0  0  0  0  0  0
    2.0597   -1.5195    0.5751 S   0  0  0  0  0  0  0  0  0  0  0  0
    2.9730   -0.3293   -0.4606 C   0  0  0  0  0  0  0  0  0  0  0  0
    4.2127   -1.0003   -1.0492 C   0  0  0  0  0  0  0  0  0  0  0  0
    5.0018   -0.0310   -1.9242 C   0  0  0  0  0  0  0  0  0  0  0  0
   -0.4347   -0.2407    0.1276 N   0  0  0  0  0  0  0  0  0  0  0  0
   -1.3446    0.9001    0.3153 C   0  0  0  0  0  0  0  0  0  0  0  0
   -2.3375    0.6128    1.4502 C   0  0  0  0  0  0  0  0  0  0  0  0
   -3.1869    1.8389    1.8175 C   0  0  0  0  0  0  0  0  0  0  0  0
   -4.1994    2.2030    0.7320 C   0  0  0  0  0  0  0  0  0  0  0  0
   -0.7178   -1.2284   -0.9262 C   0  0  0  0  0  0  0  0  0  0  0  0
   -1.2135   -2.5394   -0.3220 C   0  0  0  0  0  0  0  0  0  0  0  0
    2.3146    0.0258   -1.2830 H   0  0  0  0  0  0  0  0  0  0  0  0
    3.2765    0.5392    0.1634 H   0  0  0  0  0  0  0  0  0  0  0  0
    3.9057   -1.8745   -1.6636 H   0  0  0  0  0  0  0  0  0  0  0  0
    4.8675   -1.3597   -0.2258 H   0  0  0  0  0  0  0  0  0  0  0  0
    5.3392    0.8421   -1.3258 H   0  0  0  0  0  0  0  0  0  0  0  0
    5.8952   -0.5456   -2.3365 H   0  0  0  0  0  0  0  0  0  0  0  0
    4.3745    0.3237   -2.7697 H   0  0  0  0  0  0  0  0  0  0  0  0
   -0.7558    1.8167    0.5398 H   0  0  0  0  0  0  0  0  0  0  0  0
   -1.9031    1.1059   -0.6220 H   0  0  0  0  0  0  0  0  0  0  0  0
   -3.0009   -0.2312    1.1630 H   0  0  0  0  0  0  0  0  0  0  0  0
   -1.7743    0.3014    2.3560 H   0  0  0  0  0  0  0  0  0  0  0  0
   -3.7450    1.6117    2.7516 H   0  0  0  0  0  0  0  0  0  0  0  0
   -2.5301    2.7119    2.0229 H   0  0  0  0  0  0  0  0  0  0  0  0
   -4.8597    3.0156    1.1015 H   0  0  0  0  0  0  0  0  0  0  0  0
   -3.6836    2.5661   -0.1809 H   0  0  0  0  0  0  0  0  0  0  0  0
   -4.8295    1.3244    0.4772 H   0  0  0  0  0  0  0  0  0  0  0  0
   -1.4993   -0.8538   -1.6218 H   0  0  0  0  0  0  0  0  0  0  0  0
    0.1902   -1.4097   -1.5391 H   0  0  0  0  0  0  0  0  0  0  0  0
   -0.4521   -2.9747    0.3569 H   0  0  0  0  0  0  0  0  0  0  0  0
   -2.1499   -2.3673    0.2483 H   0  0  0  0  0  0  0  0  0  0  0  0
   -1.4209   -3.2677   -1.1340 H   0  0  0  0  0  0  0  0  0  0  0  0
  1  2  2  0
  2  7  1  0
  2  3  1  0
  3  4  1  0
  4  5  1  0
  5  6  1  0
  7 12  1  0
  7  8  1  0
  8  9  1  0
  9 10  1  0
 10 11  1  0
 12 13  1  0
  4 14  1  0
  4 15  1  0
  5 16  1  0
  5 17  1  0
  6 18  1  0
  6 19  1  0
  6 20  1  0
  8 21  1  0
  8 22  1  0
  9 23  1  0
  9 24  1  0
 10 25  1  0
 10 26  1  0
 11 27  1  0
 11 28  1  0
 11 29  1  0
 12 30  1  0
 12 31  1  0
 13 32  1  0
 13 33  1  0
 13 34  1  0
M  END
$$$$
