O=C(O)CCCCCCCCCC
     RDKit          3D

 35 34  0  0  0  0  0  0  0  0999 V2000
    6.1891    0.9079   -0.4998 O   0  0  0  0  0  0  0  0  0  0  0  0
    5.0056    1.1143   -0.8768 C   0  0  0  0  0  0  0  0  0  0  0  0
    4.6961    2.2952   -1.5454 O   0  0  0  0  0  0  0  0  0  0  0  0
    3.9353    0.1128   -0.5647 C   0  0  0  0  0  0  0  0  0  0  0  0
    3.1784    0.5186    0.7064 C   0  0  0  0  0  0  0  0  0  0  0  0
    2.1519   -0.5370    1.1464 C   0  0  0  0  0  0  0  0  0  0  0  0
    0.9415   -0.6147    0.2037 C   0  0  0  0  0  0  0  0  0  0  0  0
   -0.1286   -1.5644    0.7625 C   0  0  0  0  0  0  0  0  0  0  0  0
   -1.2711   -1.8368   -0.2331 C   0  0  0  0  0  0  0  0  0  0  0  0
   -2.0651   -0.5932   -0.6738 C   0  0  0  0  0  0  0  0  0  0  0  0
   -2.7844    0.1031    0.4940 C   0  0  0  0  0  0  0  0  0  0  0  0
   -3.6495    1.2858    0.0305 C   0  0  0  0  0  0  0  0  0  0  0  0
   -4.9363    0.8425   -0.6657 C   0  0  0  0  0  0  0  0  0  0  0  0
    3.7485    2.4955   -1.8424 H   0  0  0  0  0  0  0  0  0  0  0  0
    4.3960   -0.8901   -0.4278 H   0  0  0  0  0  0  0  0  0  0  0  0
    3.2391    0.0593   -1.4275 H   0  0  0  0  0  0  0  0  0  0  0  0
    3.9114    0.6494    1.5331 H   0  0  0  0  0  0  0  0  0  0  0  0
    2.6704    1.4958    0.5499 H   0  0  0  0  0  0  0  0  0  0  0  0
    1.7961   -0.2648    2.1645 H   0  0  0  0  0  0  0  0  0  0  0  0
    2.6427   -1.5326    1.2164 H   0  0  0  0  0  0  0  0  0  0  0  0
    1.2666   -0.9825   -0.7926 H   0  0  0  0  0  0  0  0  0  0  0  0
    0.5099    0.4025    0.0890 H   0  0  0  0  0  0  0  0  0  0  0  0
    0.3477   -2.5409    1.0004 H   0  0  0  0  0  0  0  0  0  0  0  0
   -0.5347   -1.1631    1.7150 H   0  0  0  0  0  0  0  0  0  0  0  0
   -1.9732   -2.5667    0.2258 H   0  0  0  0  0  0  0  0  0  0  0  0
   -0.8470   -2.3230   -1.1388 H   0  0  0  0  0  0  0  0  0  0  0  0
   -2.8163   -0.9329   -1.4169 H   0  0  0  0  0  0  0  0  0  0  0  0
   -1.3974    0.1257   -1.1940 H   0  0  0  0  0  0  0  0  0  0  0  0
   -3.4105   -0.6289    1.0497 H   0  0  0  0  0  0  0  0  0  0  0  0
   -2.0255    0.5049    1.1979 H   0  0  0  0  0  0  0  0  0  0  0  0
   -3.0659    1.9461   -0.6473 H   0  0  0  0  0  0  0  0  0  0  0  0
   -3.9298    1.8861    0.9232 H   0  0  0  0  0  0  0  0  0  0  0  0
   -4.7134    0.3522   -1.6354 H   0  0  0  0  0  0  0  0  0  0  0  0
   -5.5074    0.1427   -0.0193 H   0  0  0  0  0  0  0  0  0  0  0  0
   -5.5702    1.7315   -0.8679 H   0  0  0  0  0  0  0  0  0  0  0  0
  1  2  2  0
  2  4  1  0
  2  3  1  0
  4  5  1  0
  5  6  1  0
  6  7  1  0
  7  8  1  0
  8  9  1  0
  9 10  1  0
 10 11  1  0
 11 12  1  0
 12 13  1  0
  3 14  1  0
  4 15  1  0
  4 16  1  0
  5 17  1  0
  5 18  1  0
  6 19  1  0
  6 20  1  0
  7 21  1  0
  7 22  1  0
  8 23  1  0
  8 24  1  0
  9 25  1  0
  9 26  1  0
 10 27  1  0
 10 28  1  0
 11 29  1  0
 11 30  1  0
 12 31  1  0
 12 32  1  0
 13 33  1  0
 13 34  1  0
 13 35  1  0
M  END
$$$$
