CCCCCCCCCCCCCCO
     RDKit          3D

 45 44  0  0  0  0  0  0  0  0999 V2000
    6.3212    0.9744   -1.8388 C   0  0  0  0  0  0  0  0  0  0  0  0
    6.4709    0.5362   -0.3821 C   0  0  0  0  0  0  0  0  0  0  0  0
    5.5134   -0.6041   -0.0024 C   0  0  0  0  0  0  0  0  0  0  0  0
    4.0500   -0.1442    0.0790 C   0  0  0  0  0  0  0  0  0  0  0  0
    3.1437   -1.2843    0.5682 C   0  0  0  0  0  0  0  0  0  0  0  0
    1.6878   -0.8375    0.7790 C   0  0  0  0  0  0  0  0  0  0  0  0
    0.9351   -0.6308   -0.5469 C   0  0  0  0  0  0  0  0  0  0  0  0
   -0.5183   -0.1773   -0.3349 C   0  0  0  0  0  0  0  0  0  0  0  0
   -1.4142   -1.2966    0.2249 C   0  0  0  0  0  0  0  0  0  0  0  0
   -2.9069   -0.9335    0.1797 C   0  0  0  0  0  0  0  0  0  0  0  0
   -3.2655    0.2078    1.1477 C   0  0  0  0  0  0  0  0  0  0  0  0
   -4.7828    0.3972    1.3021 C   0  0  0  0  0  0  0  0  0  0  0  0
   -5.4390    0.9630    0.0322 C   0  0  0  0  0  0  0  0  0  0  0  0
   -6.9269    1.2477    0.2440 C   0  0  0  0  0  0  0  0  0  0  0  0
   -7.0931    2.2848    1.1711 O   0  0  0  0  0  0  0  0  0  0  0  0
    5.3386    1.4626   -2.0043 H   0  0  0  0  0  0  0  0  0  0  0  0
    6.4217    0.1028   -2.5198 H   0  0  0  0  0  0  0  0  0  0  0  0
    7.1165    1.7087   -2.0862 H   0  0  0  0  0  0  0  0  0  0  0  0
    7.5140    0.1826   -0.2314 H   0  0  0  0  0  0  0  0  0  0  0  0
    6.3124    1.4089    0.2881 H   0  0  0  0  0  0  0  0  0  0  0  0
    5.8241   -0.9937    0.9919 H   0  0  0  0  0  0  0  0  0  0  0  0
    5.6089   -1.4357   -0.7347 H   0  0  0  0  0  0  0  0  0  0  0  0
    3.7164    0.1845   -0.9260 H   0  0  0  0  0  0  0  0  0  0  0  0
    3.9727    0.7155    0.7802 H   0  0  0  0  0  0  0  0  0  0  0  0
    3.5311   -1.6550    1.5428 H   0  0  0  0  0  0  0  0  0  0  0  0
    3.1785   -2.1321   -0.1509 H   0  0  0  0  0  0  0  0  0  0  0  0
    1.6630    0.0966    1.3820 H   0  0  0  0  0  0  0  0  0  0  0  0
    1.1781   -1.6305    1.3658 H   0  0  0  0  0  0  0  0  0  0  0  0
    0.9538   -1.5677   -1.1456 H   0  0  0  0  0  0  0  0  0  0  0  0
    1.4457    0.1568   -1.1394 H   0  0  0  0  0  0  0  0  0  0  0  0
   -0.9210    0.1488   -1.3189 H   0  0  0  0  0  0  0  0  0  0  0  0
   -0.5334    0.7019    0.3446 H   0  0  0  0  0  0  0  0  0  0  0  0
   -1.2679   -2.2171   -0.3815 H   0  0  0  0  0  0  0  0  0  0  0  0
   -1.1275   -1.5321    1.2719 H   0  0  0  0  0  0  0  0  0  0  0  0
   -3.4880   -1.8404    0.4561 H   0  0  0  0  0  0  0  0  0  0  0  0
   -3.1851   -0.6572   -0.8597 H   0  0  0  0  0  0  0  0  0  0  0  0
   -2.8461   -0.0236    2.1513 H   0  0  0  0  0  0  0  0  0  0  0  0
   -2.8100    1.1606    0.8022 H   0  0  0  0  0  0  0  0  0  0  0  0
   -4.9534    1.1033    2.1439 H   0  0  0  0  0  0  0  0  0  0  0  0
   -5.2575   -0.5708    1.5747 H   0  0  0  0  0  0  0  0  0  0  0  0
   -5.3432    0.2295   -0.7960 H   0  0  0  0  0  0  0  0  0  0  0  0
   -4.9285    1.9025   -0.2734 H   0  0  0  0  0  0  0  0  0  0  0  0
   -7.4402    0.3273    0.6030 H   0  0  0  0  0  0  0  0  0  0  0  0
   -7.3765    1.5461   -0.7293 H   0  0  0  0  0  0  0  0  0  0  0  0
   -8.0725    2.4141    1.2663 H   0  0  0  0  0  0  0  0  0  0  0  0
  1  2  1  0
  2  3  1  0
  3  4  1  0
  4  5  1  0
  5  6  1  0
  6  7  1  0
  7  8  1  0
  8  9  1  0
  9 10  1  0
 10 11  1  0
 11 12  1  0
 12 13  1  0
 13 14  1  0
 14 15  1  0
  1 16  1  0
  1 17  1  0
  1 18  1  0
  2 19  1  0
  2 20  1  0
  3 21  1  0
  3 22  1  0
  4 23  1  0
  4 24  1  0
  5 25  1  0
  5 26  1  0
  6 27  1  0
  6 28  1  0
  7 29  1  0
  7 30  1  0
  8 31  1  0
  8 32  1  0
  9 33  1  0
  9 34  1  0
 10 35  1  0
 10 36  1  0
 11 37  1  0
 11 38  1  0
 12 39  1  0
 12 40  1  0
 13 41  1  0
 13 42  1  0
 14 43  1  0
 14 44  1  0
 15 45  1  0
M  END
$$$$
