CCCCCCCCC(O)=O
     RDKit          3D

 29 28  0  0  0  0  0  0  0  0999 V2000
   -4.1640    0.6750   -0.7155 C   0  0  0  0  0  0  0  0  0  0  0  0
   -3.0886   -0.3952   -0.5524 C   0  0  0  0  0  0  0  0  0  0  0  0
   -1.9092    0.1261    0.2767 C   0  0  0  0  0  0  0  0  0  0  0  0
   -0.8238   -0.9500    0.4247 C   0  0  0  0  0  0  0  0  0  0  0  0
    0.3076   -0.5308    1.3804 C   0  0  0  0  0  0  0  0  0  0  0  0
    1.0995    0.7191    0.9462 C   0  0  0  0  0  0  0  0  0  0  0  0
    1.7379    0.6354   -0.4550 C   0  0  0  0  0  0  0  0  0  0  0  0
    2.7249   -0.5299   -0.6321 C   0  0  0  0  0  0  0  0  0  0  0  0
    3.8764   -0.4502    0.3280 C   0  0  0  0  0  0  0  0  0  0  0  0
    4.7895    0.5981    0.2583 O   0  0  0  0  0  0  0  0  0  0  0  0
    4.0281   -1.3447    1.2011 O   0  0  0  0  0  0  0  0  0  0  0  0
   -4.5550    0.9836    0.2775 H   0  0  0  0  0  0  0  0  0  0  0  0
   -3.7489    1.5628   -1.2386 H   0  0  0  0  0  0  0  0  0  0  0  0
   -5.0041    0.2691   -1.3174 H   0  0  0  0  0  0  0  0  0  0  0  0
   -2.7315   -0.7027   -1.5596 H   0  0  0  0  0  0  0  0  0  0  0  0
   -3.5372   -1.2811   -0.0521 H   0  0  0  0  0  0  0  0  0  0  0  0
   -1.4828    1.0182   -0.2300 H   0  0  0  0  0  0  0  0  0  0  0  0
   -2.2723    0.4270    1.2841 H   0  0  0  0  0  0  0  0  0  0  0  0
   -1.2875   -1.8727    0.8377 H   0  0  0  0  0  0  0  0  0  0  0  0
   -0.4096   -1.2140   -0.5712 H   0  0  0  0  0  0  0  0  0  0  0  0
   -0.1278   -0.3365    2.3848 H   0  0  0  0  0  0  0  0  0  0  0  0
    1.0066   -1.3849    1.5044 H   0  0  0  0  0  0  0  0  0  0  0  0
    1.8972    0.9058    1.6971 H   0  0  0  0  0  0  0  0  0  0  0  0
    0.4330    1.6068    0.9809 H   0  0  0  0  0  0  0  0  0  0  0  0
    2.2677    1.5918   -0.6548 H   0  0  0  0  0  0  0  0  0  0  0  0
    0.9424    0.5570   -1.2255 H   0  0  0  0  0  0  0  0  0  0  0  0
    3.1290   -0.5039   -1.6665 H   0  0  0  0  0  0  0  0  0  0  0  0
    2.1939   -1.4987   -0.5174 H   0  0  0  0  0  0  0  0  0  0  0  0
    4.7086    1.3194   -0.4480 H   0  0  0  0  0  0  0  0  0  0  0  0
  1  2  1  0
  2  3  1  0
  3  4  1  0
  4  5  1  0
  5  6  1  0
  6  7  1  0
  7  8  1  0
  8  9  1  0
  9 10  1  0
  9 11  2  0
  1 12  1  0
  1 13  1  0
  1 14  1  0
  2 15  1  0
  2 16  1  0
  3 17  1  0
  3 18  1  0
  4 19  1  0
  4 20  1  0
  5 21  1  0
  5 22  1  0
  6 23  1  0
  6 24  1  0
  7 25  1  0
  7 26  1  0
  8 27  1  0
  8 28  1  0
 10 29  1  0
M  END
$$$$
