CCCCCCCCCCO
     RDKit          3D

 33 32  0  0  0  0  0  0  0  0999 V2000
    5.0890    0.8189    0.6929 C   0  0  0  0  0  0  0  0  0  0  0  0
    3.8097    0.5164   -0.0821 C   0  0  0  0  0  0  0  0  0  0  0  0
    3.1811   -0.8053    0.3832 C   0  0  0  0  0  0  0  0  0  0  0  0
    1.9659   -1.2134   -0.4646 C   0  0  0  0  0  0  0  0  0  0  0  0
    0.7447   -0.3133   -0.2221 C   0  0  0  0  0  0  0  0  0  0  0  0
   -0.4845   -0.8441   -0.9758 C   0  0  0  0  0  0  0  0  0  0  0  0
   -1.6925    0.1027   -0.8862 C   0  0  0  0  0  0  0  0  0  0  0  0
   -2.3512    0.0903    0.5042 C   0  0  0  0  0  0  0  0  0  0  0  0
   -3.5559    1.0434    0.5965 C   0  0  0  0  0  0  0  0  0  0  0  0
   -4.7902    0.5499   -0.1659 C   0  0  0  0  0  0  0  0  0  0  0  0
   -5.2085   -0.6892    0.3366 O   0  0  0  0  0  0  0  0  0  0  0  0
    5.5161    1.7827    0.3440 H   0  0  0  0  0  0  0  0  0  0  0  0
    5.8402    0.0175    0.5267 H   0  0  0  0  0  0  0  0  0  0  0  0
    4.8718    0.8989    1.7794 H   0  0  0  0  0  0  0  0  0  0  0  0
    4.0523    0.4581   -1.1655 H   0  0  0  0  0  0  0  0  0  0  0  0
    3.0985    1.3541    0.0770 H   0  0  0  0  0  0  0  0  0  0  0  0
    2.8861   -0.7286    1.4529 H   0  0  0  0  0  0  0  0  0  0  0  0
    3.9418   -1.6126    0.3013 H   0  0  0  0  0  0  0  0  0  0  0  0
    1.6983   -2.2595   -0.1976 H   0  0  0  0  0  0  0  0  0  0  0  0
    2.2384   -1.2007   -1.5428 H   0  0  0  0  0  0  0  0  0  0  0  0
    0.9663    0.7169   -0.5730 H   0  0  0  0  0  0  0  0  0  0  0  0
    0.5312   -0.2820    0.8671 H   0  0  0  0  0  0  0  0  0  0  0  0
   -0.7635   -1.8485   -0.5879 H   0  0  0  0  0  0  0  0  0  0  0  0
   -0.2205   -0.9607   -2.0500 H   0  0  0  0  0  0  0  0  0  0  0  0
   -1.3816    1.1368   -1.1520 H   0  0  0  0  0  0  0  0  0  0  0  0
   -2.4326   -0.2311   -1.6432 H   0  0  0  0  0  0  0  0  0  0  0  0
   -1.6099    0.4215    1.2611 H   0  0  0  0  0  0  0  0  0  0  0  0
   -2.6608   -0.9437    0.7700 H   0  0  0  0  0  0  0  0  0  0  0  0
   -3.2685    2.0487    0.2186 H   0  0  0  0  0  0  0  0  0  0  0  0
   -3.8316    1.1609    1.6673 H   0  0  0  0  0  0  0  0  0  0  0  0
   -4.5714    0.4703   -1.2525 H   0  0  0  0  0  0  0  0  0  0  0  0
   -5.6066    1.2948   -0.0358 H   0  0  0  0  0  0  0  0  0  0  0  0
   -6.0017   -0.9501   -0.1998 H   0  0  0  0  0  0  0  0  0  0  0  0
  1  2  1  0
  2  3  1  0
  3  4  1  0
  4  5  1  0
  5  6  1  0
  6  7  1  0
  7  8  1  0
  8  9  1  0
  9 10  1  0
 10 11  1  0
  1 12  1  0
  1 13  1  0
  1 14  1  0
  2 15  1  0
  2 16  1  0
  3 17  1  0
  3 18  1  0
  4 19  1  0
  4 20  1  0
  5 21  1  0
  5 22  1  0
  6 23  1  0
  6 24  1  0
  7 25  1  0
  7 26  1  0
  8 27  1  0
  8 28  1  0
  9 29  1  0
  9 30  1  0
 10 31  1  0
 10 32  1  0
 11 33  1  0
M  END
$$$$
