O=C(NC)Oc1cc(C)ccc1
     RDKit          3D

 23 23  0  0  0  0  0  0  0  0999 V2000
    1.5417    1.3279    0.7139 O   0  0  0  0  0  0  0  0  0  0  0  0
    2.0047    0.4998   -0.1180 C   0  0  0  0  0  0  0  0  0  0  0  0
    3.4156    0.2792   -0.1995 N   0  0  0  0  0  0  0  0  0  0  0  0
    4.3552    0.9585    0.6837 C   0  0  0  0  0  0  0  0  0  0  0  0
    1.1581   -0.1715   -1.0095 O   0  0  0  0  0  0  0  0  0  0  0  0
   -0.2351   -0.2785   -0.8817 C   0  0  0  0  0  0  0  0  0  0  0  0
   -0.8768   -0.2962    0.3718 C   0  0  0  0  0  0  0  0  0  0  0  0
   -2.2728   -0.4254    0.4539 C   0  0  0  0  0  0  0  0  0  0  0  0
   -2.9558   -0.4026    1.7895 C   0  0  0  0  0  0  0  0  0  0  0  0
   -3.0286   -0.5172   -0.7244 C   0  0  0  0  0  0  0  0  0  0  0  0
   -2.3927   -0.5210   -1.9680 C   0  0  0  0  0  0  0  0  0  0  0  0
   -1.0021   -0.4115   -2.0450 C   0  0  0  0  0  0  0  0  0  0  0  0
    3.7816   -0.3930   -0.9106 H   0  0  0  0  0  0  0  0  0  0  0  0
    4.2795    2.0570    0.5407 H   0  0  0  0  0  0  0  0  0  0  0  0
    4.1292    0.7046    1.7408 H   0  0  0  0  0  0  0  0  0  0  0  0
    5.3920    0.6365    0.4506 H   0  0  0  0  0  0  0  0  0  0  0  0
   -0.2969   -0.2416    1.2835 H   0  0  0  0  0  0  0  0  0  0  0  0
   -3.1720    0.6479    2.0753 H   0  0  0  0  0  0  0  0  0  0  0  0
   -2.3104   -0.8644    2.5668 H   0  0  0  0  0  0  0  0  0  0  0  0
   -3.9092   -0.9717    1.7537 H   0  0  0  0  0  0  0  0  0  0  0  0
   -4.1080   -0.5947   -0.6801 H   0  0  0  0  0  0  0  0  0  0  0  0
   -2.9787   -0.6066   -2.8740 H   0  0  0  0  0  0  0  0  0  0  0  0
   -0.5185   -0.4155   -3.0137 H   0  0  0  0  0  0  0  0  0  0  0  0
  1  2  2  0
  2  3  1  0
  2  5  1  0
  3  4  1  0
  5  6  1  0
  6 12  2  0
  6  7  1  0
  7  8  2  0
  8  9  1  0
  8 10  1  0
 10 11  2  0
 11 12  1  0
  3 13  1  0
  4 14  1  0
  4 15  1  0
  4 16  1  0
  7 17  1  0
  9 18  1  0
  9 19  1  0
  9 20  1  0
 10 21  1  0
 11 22  1  0
 12 23  1  0
M  END
$$$$
