O=C(NC)Oc(cccc1)c1OC(C)C
     RDKit          3D

 30 30  0  0  0  0  0  0  0  0999 V2000
    1.6801   -0.2990    1.0205 O   0  0  0  0  0  0  0  0  0  0  0  0
    2.1353   -0.2982   -0.1567 C   0  0  0  0  0  0  0  0  0  0  0  0
    3.0865   -1.2872   -0.5596 N   0  0  0  0  0  0  0  0  0  0  0  0
    3.5180   -2.3514    0.3377 C   0  0  0  0  0  0  0  0  0  0  0  0
    1.7499    0.6914   -1.0689 O   0  0  0  0  0  0  0  0  0  0  0  0
    0.6480    1.5404   -0.8948 C   0  0  0  0  0  0  0  0  0  0  0  0
    0.8067    2.9007   -1.1859 C   0  0  0  0  0  0  0  0  0  0  0  0
   -0.2566    3.7893   -1.0191 C   0  0  0  0  0  0  0  0  0  0  0  0
   -1.4927    3.3221   -0.5728 C   0  0  0  0  0  0  0  0  0  0  0  0
   -1.6745    1.9631   -0.3053 C   0  0  0  0  0  0  0  0  0  0  0  0
   -0.6098    1.0538   -0.4746 C   0  0  0  0  0  0  0  0  0  0  0  0
   -0.7677   -0.3291   -0.2772 O   0  0  0  0  0  0  0  0  0  0  0  0
   -1.9115   -0.9755    0.2848 C   0  0  0  0  0  0  0  0  0  0  0  0
   -1.8121   -2.4728   -0.0009 C   0  0  0  0  0  0  0  0  0  0  0  0
   -1.9712   -0.7289    1.7958 C   0  0  0  0  0  0  0  0  0  0  0  0
    3.4714   -1.2527   -1.5302 H   0  0  0  0  0  0  0  0  0  0  0  0
    4.2459   -3.0102   -0.1812 H   0  0  0  0  0  0  0  0  0  0  0  0
    2.6423   -2.9589    0.6496 H   0  0  0  0  0  0  0  0  0  0  0  0
    4.0052   -1.9136    1.2343 H   0  0  0  0  0  0  0  0  0  0  0  0
    1.7644    3.2718   -1.5282 H   0  0  0  0  0  0  0  0  0  0  0  0
   -0.1217    4.8413   -1.2352 H   0  0  0  0  0  0  0  0  0  0  0  0
   -2.3161    4.0130   -0.4446 H   0  0  0  0  0  0  0  0  0  0  0  0
   -2.6517    1.6335    0.0158 H   0  0  0  0  0  0  0  0  0  0  0  0
   -2.8407   -0.6039   -0.1983 H   0  0  0  0  0  0  0  0  0  0  0  0
   -2.6971   -3.0046    0.4094 H   0  0  0  0  0  0  0  0  0  0  0  0
   -1.7773   -2.6430   -1.0979 H   0  0  0  0  0  0  0  0  0  0  0  0
   -0.8896   -2.8948    0.4531 H   0  0  0  0  0  0  0  0  0  0  0  0
   -1.0483   -1.1069    2.2854 H   0  0  0  0  0  0  0  0  0  0  0  0
   -2.0633    0.3552    2.0106 H   0  0  0  0  0  0  0  0  0  0  0  0
   -2.8520   -1.2446    2.2344 H   0  0  0  0  0  0  0  0  0  0  0  0
  1  2  2  0
  2  3  1  0
  2  5  1  0
  3  4  1  0
  5  6  1  0
  6  7  2  0
  6 11  1  0
  7  8  1  0
  8  9  2  0
  9 10  1  0
 10 11  2  0
 11 12  1  0
 12 13  1  0
 13 15  1  0
 13 14  1  0
  3 16  1  0
  4 17  1  0
  4 18  1  0
  4 19  1  0
  7 20  1  0
  8 21  1  0
  9 22  1  0
 10 23  1  0
 13 24  1  0
 14 25  1  0
 14 26  1  0
 14 27  1  0
 15 28  1  0
 15 29  1  0
 15 30  1  0
M  END
$$$$
