
     RDKit          3D

 28 29  0  0  0  0  0  0  0  0999 V2000
   -0.2701    1.2511   -3.2102 O   0  0  0  0  0  0  0  0  0  0  0  0
    0.2214    1.2341   -2.0497 C   0  0  0  0  0  0  0  0  0  0  0  0
    0.7972    2.3919   -1.5319 O   0  0  0  0  0  0  0  0  0  0  0  0
    0.1335   -0.0255   -1.2226 C   0  0  0  0  0  0  0  0  0  0  0  0
    1.2569   -0.1174   -0.2048 C   0  0  0  0  0  0  0  0  0  0  0  0
    1.2968    0.7324    0.9190 C   0  0  0  0  0  0  0  0  0  0  0  0
    2.3375    0.6321    1.8469 C   0  0  0  0  0  0  0  0  0  0  0  0
    3.3491   -0.3133    1.6660 C   0  0  0  0  0  0  0  0  0  0  0  0
    3.3228   -1.1599    0.5558 C   0  0  0  0  0  0  0  0  0  0  0  0
    2.2845   -1.0641   -0.3757 C   0  0  0  0  0  0  0  0  0  0  0  0
   -1.2216   -0.1976   -0.5575 C   0  0  0  0  0  0  0  0  0  0  0  0
   -1.9715    0.9025   -0.0910 C   0  0  0  0  0  0  0  0  0  0  0  0
   -3.1992    0.7031    0.5473 C   0  0  0  0  0  0  0  0  0  0  0  0
   -3.6889   -0.5907    0.7375 C   0  0  0  0  0  0  0  0  0  0  0  0
   -2.9494   -1.6890    0.2940 C   0  0  0  0  0  0  0  0  0  0  0  0
   -1.7210   -1.4958   -0.3448 C   0  0  0  0  0  0  0  0  0  0  0  0
    0.8397    3.2419   -2.0810 H   0  0  0  0  0  0  0  0  0  0  0  0
    0.2498   -0.8617   -1.9493 H   0  0  0  0  0  0  0  0  0  0  0  0
    0.5263    1.4747    1.0777 H   0  0  0  0  0  0  0  0  0  0  0  0
    2.3598    1.2889    2.7069 H   0  0  0  0  0  0  0  0  0  0  0  0
    4.1540   -0.3892    2.3856 H   0  0  0  0  0  0  0  0  0  0  0  0
    4.1081   -1.8916    0.4162 H   0  0  0  0  0  0  0  0  0  0  0  0
    2.2844   -1.7300   -1.2296 H   0  0  0  0  0  0  0  0  0  0  0  0
   -1.6091    1.9146   -0.2140 H   0  0  0  0  0  0  0  0  0  0  0  0
   -3.7696    1.5531    0.8989 H   0  0  0  0  0  0  0  0  0  0  0  0
   -4.6389   -0.7425    1.2333 H   0  0  0  0  0  0  0  0  0  0  0  0
   -3.3262   -2.6918    0.4488 H   0  0  0  0  0  0  0  0  0  0  0  0
   -1.1563   -2.3603   -0.6719 H   0  0  0  0  0  0  0  0  0  0  0  0
  1  2  2  0
  2  4  1  0
  2  3  1  0
  4 11  1  0
  4  5  1  0
  5 10  1  0
  5  6  2  0
  6  7  1  0
  7  8  2  0
  8  9  1  0
  9 10  2  0
 11 16  1  0
 11 12  2  0
 12 13  1  0
 13 14  2  0
 14 15  1  0
 15 16  2  0
  3 17  1  0
  4 18  1  0
  6 19  1  0
  7 20  1  0
  8 21  1  0
  9 22  1  0
 10 23  1  0
 12 24  1  0
 13 25  1  0
 14 26  1  0
 15 27  1  0
 16 28  1  0
M  END
$$$$
