O=C1C=CC2(C)C(CCC3C2(F)C(O)CC4(C)C3CC(C)C4(OC(C)=O)C(CO)=O)=C1
     RDKit          3D

 62 65  0  0  1  0  0  0  0  0999 V2000
   -6.5375   -0.1513   -2.3632 O   0  0  0  0  0  0  0  0  0  0  0  0
   -5.5617   -0.2425   -1.5728 C   0  0  0  0  0  0  0  0  0  0  0  0
   -4.9279   -1.5374   -1.3343 C   0  0  0  0  0  0  0  0  0  0  0  0
   -3.9313   -1.6543   -0.4550 C   0  0  0  0  0  0  0  0  0  0  0  0
   -3.4681   -0.5080    0.4468 C   0  0  2  0  0  0  0  0  0  0  0  0
   -4.0735   -0.8205    1.8377 C   0  0  0  0  0  0  0  0  0  0  0  0
   -4.0480    0.8511   -0.0038 C   0  0  0  0  0  0  0  0  0  0  0  0
   -3.3244    2.1014    0.4375 C   0  0  0  0  0  0  0  0  0  0  0  0
   -1.8801    2.1167   -0.1105 C   0  0  0  0  0  0  0  0  0  0  0  0
   -1.3556    0.6986   -0.4778 C   0  0  2  0  0  0  0  0  0  0  0  0
   -1.8718   -0.3730    0.5413 C   0  0  1  0  0  0  0  0  0  0  0  0
   -1.6103    0.1206    1.8084 F   0  0  0  0  0  0  0  0  0  0  0  0
   -1.0439   -1.7068    0.4232 C   0  0  1  0  0  0  0  0  0  0  0  0
   -1.3067   -2.4083   -0.7704 O   0  0  0  0  0  0  0  0  0  0  0  0
    0.5076   -1.5304    0.5828 C   0  0  0  0  0  0  0  0  0  0  0  0
    1.0540   -0.0809    0.3142 C   0  0  2  0  0  0  0  0  0  0  0  0
    1.0483    0.7225    1.6724 C   0  0  0  0  0  0  0  0  0  0  0  0
    0.1794    0.5927   -0.7641 C   0  0  2  0  0  0  0  0  0  0  0  0
    0.9560    1.8316   -1.2085 C   0  0  0  0  0  0  0  0  0  0  0  0
    2.4517    1.4630   -1.0309 C   0  0  1  0  0  0  0  0  0  0  0  0
    3.1832    2.5791   -0.2542 C   0  0  0  0  0  0  0  0  0  0  0  0
    2.4869    0.0286   -0.3602 C   0  0  1  0  0  0  0  0  0  0  0  0
    3.5231   -0.0816    0.6346 O   0  0  0  0  0  0  0  0  0  0  0  0
    4.9045   -0.0317    0.3900 C   0  0  0  0  0  0  0  0  0  0  0  0
    5.8482   -0.1199    1.5394 C   0  0  0  0  0  0  0  0  0  0  0  0
    5.3549    0.1282   -0.7772 O   0  0  0  0  0  0  0  0  0  0  0  0
    2.7151   -1.0570   -1.4392 C   0  0  0  0  0  0  0  0  0  0  0  0
    3.3858   -2.3729   -1.1214 C   0  0  0  0  0  0  0  0  0  0  0  0
    2.6503   -3.4251   -1.6843 O   0  0  0  0  0  0  0  0  0  0  0  0
    2.3533   -0.8703   -2.5918 O   0  0  0  0  0  0  0  0  0  0  0  0
   -5.0315    0.9503   -0.9124 C   0  0  0  0  0  0  0  0  0  0  0  0
   -5.2881   -2.4152   -1.8577 H   0  0  0  0  0  0  0  0  0  0  0  0
   -3.5982   -2.6602   -0.2334 H   0  0  0  0  0  0  0  0  0  0  0  0
   -5.1733   -0.9710    1.7622 H   0  0  0  0  0  0  0  0  0  0  0  0
   -3.6236   -1.7439    2.2646 H   0  0  0  0  0  0  0  0  0  0  0  0
   -3.9082    0.0099    2.5571 H   0  0  0  0  0  0  0  0  0  0  0  0
   -3.8563    3.0272    0.1262 H   0  0  0  0  0  0  0  0  0  0  0  0
   -3.2956    2.1197    1.5482 H   0  0  0  0  0  0  0  0  0  0  0  0
   -1.2363    2.5992    0.6499 H   0  0  0  0  0  0  0  0  0  0  0  0
   -1.8494    2.7539   -1.0215 H   0  0  0  0  0  0  0  0  0  0  0  0
   -1.8486    0.4626   -1.4514 H   0  0  0  0  0  0  0  0  0  0  0  0
   -1.3790   -2.3676    1.2528 H   0  0  0  0  0  0  0  0  0  0  0  0
   -1.0722   -1.8285   -1.5362 H   0  0  0  0  0  0  0  0  0  0  0  0
    0.8186   -1.8740    1.5952 H   0  0  0  0  0  0  0  0  0  0  0  0
    0.9757   -2.2680   -0.0892 H   0  0  0  0  0  0  0  0  0  0  0  0
    0.5535    0.1742    2.4982 H   0  0  0  0  0  0  0  0  0  0  0  0
    2.0552    0.9154    2.0853 H   0  0  0  0  0  0  0  0  0  0  0  0
    0.5667    1.7133    1.5815 H   0  0  0  0  0  0  0  0  0  0  0  0
    0.2273   -0.0707   -1.6549 H   0  0  0  0  0  0  0  0  0  0  0  0
    0.6867    2.7108   -0.5857 H   0  0  0  0  0  0  0  0  0  0  0  0
    0.7263    2.0813   -2.2693 H   0  0  0  0  0  0  0  0  0  0  0  0
    2.9306    1.4392   -2.0358 H   0  0  0  0  0  0  0  0  0  0  0  0
    2.9721    3.5637   -0.7256 H   0  0  0  0  0  0  0  0  0  0  0  0
    4.2811    2.4417   -0.2931 H   0  0  0  0  0  0  0  0  0  0  0  0
    2.8578    2.6281    0.8048 H   0  0  0  0  0  0  0  0  0  0  0  0
    6.7853   -0.6287    1.2310 H   0  0  0  0  0  0  0  0  0  0  0  0
    6.0884    0.9018    1.9004 H   0  0  0  0  0  0  0  0  0  0  0  0
    5.3816   -0.6974    2.3654 H   0  0  0  0  0  0  0  0  0  0  0  0
    3.4633   -2.5221   -0.0218 H   0  0  0  0  0  0  0  0  0  0  0  0
    4.4101   -2.3666   -1.5546 H   0  0  0  0  0  0  0  0  0  0  0  0
    3.1156   -4.2622   -1.4180 H   0  0  0  0  0  0  0  0  0  0  0  0
   -5.3966    1.9216   -1.2289 H   0  0  0  0  0  0  0  0  0  0  0  0
  1  2  2  0
  2  3  1  0
  2 31  1  0
  3  4  2  0
  4  5  1  0
  5  6  1  1
  5  7  1  0
  5 11  1  0
  7  8  1  0
  7 31  2  0
  8  9  1  0
  9 10  1  0
 10 18  1  0
 10 11  1  0
 11 13  1  0
 11 12  1  1
 13 15  1  0
 13 14  1  0
 15 16  1  0
 16 17  1  1
 16 18  1  0
 16 22  1  0
 18 19  1  0
 19 20  1  0
 20 21  1  0
 20 22  1  0
 22 27  1  6
 22 23  1  0
 23 24  1  0
 24 25  1  0
 24 26  2  0
 27 28  1  0
 27 30  2  0
 28 29  1  0
  3 32  1  0
  4 33  1  0
  6 34  1  0
  6 35  1  0
  6 36  1  0
  8 37  1  0
  8 38  1  0
  9 39  1  0
  9 40  1  0
 10 41  1  6
 13 42  1  1
 14 43  1  0
 15 44  1  0
 15 45  1  0
 17 46  1  0
 17 47  1  0
 17 48  1  0
 18 49  1  6
 19 50  1  0
 19 51  1  0
 20 52  1  6
 21 53  1  0
 21 54  1  0
 21 55  1  0
 25 56  1  0
 25 57  1  0
 25 58  1  0
 28 59  1  0
 28 60  1  0
 29 61  1  0
 31 62  1  0
M  END
$$$$
