CC(C(N(Cl)C1=O)=O)(N1Cl)C
     RDKit          3D

 17 17  0  0  0  0  0  0  0  0999 V2000
   -1.2988   -0.2595    1.1607 C   0  0  0  0  0  0  0  0  0  0  0  0
   -0.3676    0.0380   -0.0214 C   0  0  0  0  0  0  0  0  0  0  0  0
    0.4874   -1.1629   -0.3467 C   0  0  0  0  0  0  0  0  0  0  0  0
    1.8724   -0.8902   -0.1901 N   0  0  0  0  0  0  0  0  0  0  0  0
    3.1938   -2.0169   -0.3115 Cl  0  0  0  0  0  0  0  0  0  0  0  0
    1.9245    0.4511    0.2498 C   0  0  0  0  0  0  0  0  0  0  0  0
    2.9944    1.0545    0.5270 O   0  0  0  0  0  0  0  0  0  0  0  0
    0.0435   -2.2851   -0.7092 O   0  0  0  0  0  0  0  0  0  0  0  0
    0.6354    1.0404    0.3549 N   0  0  0  0  0  0  0  0  0  0  0  0
    0.3167    2.6774    0.8639 Cl  0  0  0  0  0  0  0  0  0  0  0  0
   -1.1521    0.5000   -1.2556 C   0  0  0  0  0  0  0  0  0  0  0  0
   -2.0091   -1.0733    0.9001 H   0  0  0  0  0  0  0  0  0  0  0  0
   -0.7087   -0.5733    2.0487 H   0  0  0  0  0  0  0  0  0  0  0  0
   -1.8829    0.6463    1.4298 H   0  0  0  0  0  0  0  0  0  0  0  0
   -1.7334    1.4174   -1.0225 H   0  0  0  0  0  0  0  0  0  0  0  0
   -1.8583   -0.2920   -1.5854 H   0  0  0  0  0  0  0  0  0  0  0  0
   -0.4573    0.7281   -2.0926 H   0  0  0  0  0  0  0  0  0  0  0  0
  1  2  1  0
  2 11  1  0
  2  3  1  0
  2  9  1  0
  3  4  1  0
  3  8  2  0
  4  6  1  0
  4  5  1  0
  6  9  1  0
  6  7  2  0
  9 10  1  0
  1 12  1  0
  1 13  1  0
  1 14  1  0
 11 15  1  0
 11 16  1  0
 11 17  1  0
M  END
$$$$
