O=C(c(cccc2)c2O)Oc1ccccc1
     RDKit          3D

 26 27  0  0  0  0  0  0  0  0999 V2000
    0.6370   -2.1584   -2.6058 O   0  0  0  0  0  0  0  0  0  0  0  0
    0.4045   -1.5276   -1.5409 C   0  0  0  0  0  0  0  0  0  0  0  0
    1.2501   -0.3620   -1.1965 C   0  0  0  0  0  0  0  0  0  0  0  0
    1.5131    0.5979   -2.1893 C   0  0  0  0  0  0  0  0  0  0  0  0
    2.2500    1.7457   -1.8886 C   0  0  0  0  0  0  0  0  0  0  0  0
    2.7376    1.9452   -0.5968 C   0  0  0  0  0  0  0  0  0  0  0  0
    2.5062    0.9880    0.3930 C   0  0  0  0  0  0  0  0  0  0  0  0
    1.7835   -0.1756    0.1020 C   0  0  0  0  0  0  0  0  0  0  0  0
    1.6420   -1.1317    1.1095 O   0  0  0  0  0  0  0  0  0  0  0  0
   -0.6351   -1.9721   -0.7112 O   0  0  0  0  0  0  0  0  0  0  0  0
   -1.3845   -1.1606    0.1543 C   0  0  0  0  0  0  0  0  0  0  0  0
   -1.6298    0.1987   -0.1187 C   0  0  0  0  0  0  0  0  0  0  0  0
   -2.3833    0.9700    0.7715 C   0  0  0  0  0  0  0  0  0  0  0  0
   -2.9074    0.3908    1.9301 C   0  0  0  0  0  0  0  0  0  0  0  0
   -2.6857   -0.9631    2.1958 C   0  0  0  0  0  0  0  0  0  0  0  0
   -1.9324   -1.7369    1.3074 C   0  0  0  0  0  0  0  0  0  0  0  0
    1.1228    0.4713   -3.1919 H   0  0  0  0  0  0  0  0  0  0  0  0
    2.4355    2.4857   -2.6565 H   0  0  0  0  0  0  0  0  0  0  0  0
    3.3041    2.8377   -0.3644 H   0  0  0  0  0  0  0  0  0  0  0  0
    2.9067    1.1409    1.3872 H   0  0  0  0  0  0  0  0  0  0  0  0
    1.2448   -2.0477    0.9478 H   0  0  0  0  0  0  0  0  0  0  0  0
   -1.2600    0.6575   -1.0253 H   0  0  0  0  0  0  0  0  0  0  0  0
   -2.5672    2.0153    0.5591 H   0  0  0  0  0  0  0  0  0  0  0  0
   -3.4914    0.9888    2.6177 H   0  0  0  0  0  0  0  0  0  0  0  0
   -3.0977   -1.4132    3.0897 H   0  0  0  0  0  0  0  0  0  0  0  0
   -1.7632   -2.7847    1.5207 H   0  0  0  0  0  0  0  0  0  0  0  0
  1  2  2  0
  2  3  1  0
  2 10  1  0
  3  4  2  0
  3  8  1  0
  4  5  1  0
  5  6  2  0
  6  7  1  0
  7  8  2  0
  8  9  1  0
 10 11  1  0
 11 16  1  0
 11 12  2  0
 12 13  1  0
 13 14  2  0
 14 15  1  0
 15 16  2  0
  4 17  1  0
  5 18  1  0
  6 19  1  0
  7 20  1  0
  9 21  1  0
 12 22  1  0
 13 23  1  0
 14 24  1  0
 15 25  1  0
 16 26  1  0
M  END
$$$$
