COc2ccc1C(C3N(CCc5c3cc4OCOc4c5)C)OC(c1c2OC)=O
     RDKit          3D

 49 53  0  0  1  0  0  0  0  0999 V2000
    5.5844    1.0853    1.1666 C   0  0  0  0  0  0  0  0  0  0  0  0
    4.5471    1.4888    0.2786 O   0  0  0  0  0  0  0  0  0  0  0  0
    3.4596    0.6875   -0.1023 C   0  0  0  0  0  0  0  0  0  0  0  0
    3.3217   -0.6382    0.3927 C   0  0  0  0  0  0  0  0  0  0  0  0
    2.2346   -1.4405    0.0182 C   0  0  0  0  0  0  0  0  0  0  0  0
    1.2803   -0.9099   -0.8443 C   0  0  0  0  0  0  0  0  0  0  0  0
    0.0305   -1.5646   -1.3811 C   0  0  1  0  0  0  0  0  0  0  0  0
   -0.9784   -1.9493   -0.2652 C   0  0  2  0  0  0  0  0  0  0  0  0
   -1.9283   -2.9721   -0.7694 N   0  0  0  0  0  0  0  0  0  0  0  0
   -2.9853   -2.4060   -1.6316 C   0  0  0  0  0  0  0  0  0  0  0  0
   -3.8424   -1.3532   -0.9160 C   0  0  0  0  0  0  0  0  0  0  0  0
   -3.0412   -0.4423   -0.0268 C   0  0  0  0  0  0  0  0  0  0  0  0
   -1.6867   -0.7325    0.3114 C   0  0  0  0  0  0  0  0  0  0  0  0
   -0.9926    0.1207    1.2018 C   0  0  0  0  0  0  0  0  0  0  0  0
   -1.6580    1.2320    1.7036 C   0  0  0  0  0  0  0  0  0  0  0  0
   -1.1847    2.1983    2.5701 O   0  0  0  0  0  0  0  0  0  0  0  0
   -2.2408    3.1410    2.8006 C   0  0  0  0  0  0  0  0  0  0  0  0
   -3.3453    2.6615    2.0211 O   0  0  0  0  0  0  0  0  0  0  0  0
   -2.9428    1.5074    1.3770 C   0  0  0  0  0  0  0  0  0  0  0  0
   -3.6756    0.6940    0.5214 C   0  0  0  0  0  0  0  0  0  0  0  0
   -2.4889   -3.7904    0.3216 C   0  0  0  0  0  0  0  0  0  0  0  0
   -0.5057   -0.5570   -2.2502 O   0  0  0  0  0  0  0  0  0  0  0  0
    0.2910    0.5787   -2.2205 C   0  0  0  0  0  0  0  0  0  0  0  0
    1.4141    0.3636   -1.3409 C   0  0  0  0  0  0  0  0  0  0  0  0
    2.4783    1.2019   -0.9986 C   0  0  0  0  0  0  0  0  0  0  0  0
    2.5081    2.4912   -1.5598 O   0  0  0  0  0  0  0  0  0  0  0  0
    3.4996    3.4850   -1.3278 C   0  0  0  0  0  0  0  0  0  0  0  0
    0.0495    1.6278   -2.8726 O   0  0  0  0  0  0  0  0  0  0  0  0
    5.1604    0.8403    2.1633 H   0  0  0  0  0  0  0  0  0  0  0  0
    6.1227    0.2070    0.7517 H   0  0  0  0  0  0  0  0  0  0  0  0
    6.3055    1.9200    1.2834 H   0  0  0  0  0  0  0  0  0  0  0  0
    4.0523   -1.0584    1.0697 H   0  0  0  0  0  0  0  0  0  0  0  0
    2.1379   -2.4492    0.3983 H   0  0  0  0  0  0  0  0  0  0  0  0
    0.3143   -2.4602   -1.9755 H   0  0  0  0  0  0  0  0  0  0  0  0
   -0.3835   -2.4102    0.5568 H   0  0  0  0  0  0  0  0  0  0  0  0
   -3.6445   -3.2187   -2.0084 H   0  0  0  0  0  0  0  0  0  0  0  0
   -2.5281   -1.9561   -2.5366 H   0  0  0  0  0  0  0  0  0  0  0  0
   -4.3675   -0.7480   -1.6868 H   0  0  0  0  0  0  0  0  0  0  0  0
   -4.6168   -1.8600   -0.3009 H   0  0  0  0  0  0  0  0  0  0  0  0
    0.0287   -0.0769    1.4984 H   0  0  0  0  0  0  0  0  0  0  0  0
   -2.5110    3.1592    3.8772 H   0  0  0  0  0  0  0  0  0  0  0  0
   -1.9366    4.1507    2.4534 H   0  0  0  0  0  0  0  0  0  0  0  0
   -4.7061    0.9318    0.2895 H   0  0  0  0  0  0  0  0  0  0  0  0
   -1.6773   -4.3645    0.8171 H   0  0  0  0  0  0  0  0  0  0  0  0
   -3.2135   -4.5313   -0.0795 H   0  0  0  0  0  0  0  0  0  0  0  0
   -2.9967   -3.1603    1.0835 H   0  0  0  0  0  0  0  0  0  0  0  0
    4.4927    3.1242   -1.6685 H   0  0  0  0  0  0  0  0  0  0  0  0
    3.5240    3.7594   -0.2523 H   0  0  0  0  0  0  0  0  0  0  0  0
    3.2411    4.3921   -1.9113 H   0  0  0  0  0  0  0  0  0  0  0  0
  1  2  1  0
  2  3  1  0
  3  4  2  0
  3 25  1  0
  4  5  1  0
  5  6  2  0
  6 24  1  0
  6  7  1  0
  7  8  1  0
  7 22  1  0
  8 13  1  0
  8  9  1  0
  9 21  1  0
  9 10  1  0
 10 11  1  0
 11 12  1  0
 12 20  2  0
 12 13  1  0
 13 14  2  0
 14 15  1  0
 15 19  2  0
 15 16  1  0
 16 17  1  0
 17 18  1  0
 18 19  1  0
 19 20  1  0
 22 23  1  0
 23 24  1  0
 23 28  2  0
 24 25  2  0
 25 26  1  0
 26 27  1  0
  1 29  1  0
  1 30  1  0
  1 31  1  0
  4 32  1  0
  5 33  1  0
  7 34  1  6
  8 35  1  1
 10 36  1  0
 10 37  1  0
 11 38  1  0
 11 39  1  0
 14 40  1  0
 17 41  1  0
 17 42  1  0
 20 43  1  0
 21 44  1  0
 21 45  1  0
 21 46  1  0
 27 47  1  0
 27 48  1  0
 27 49  1  0
M  END
$$$$
