OC(c1ccccc1N)=O
     RDKit          3D

 17 17  0  0  0  0  0  0  0  0999 V2000
    2.4840   -1.6865   -0.7963 O   0  0  0  0  0  0  0  0  0  0  0  0
    1.8116   -0.4754   -0.9448 C   0  0  0  0  0  0  0  0  0  0  0  0
    0.4673   -0.2763   -0.3575 C   0  0  0  0  0  0  0  0  0  0  0  0
   -0.4665   -1.3248   -0.4432 C   0  0  0  0  0  0  0  0  0  0  0  0
   -1.7665   -1.1618    0.0391 C   0  0  0  0  0  0  0  0  0  0  0  0
   -2.1533    0.0491    0.6111 C   0  0  0  0  0  0  0  0  0  0  0  0
   -1.2377    1.0974    0.7143 C   0  0  0  0  0  0  0  0  0  0  0  0
    0.0778    0.9473    0.2461 C   0  0  0  0  0  0  0  0  0  0  0  0
    1.0053    2.0240    0.4407 N   0  0  0  0  0  0  0  0  0  0  0  0
    2.3492    0.4406   -1.6215 O   0  0  0  0  0  0  0  0  0  0  0  0
    2.1081   -2.4379   -0.2308 H   0  0  0  0  0  0  0  0  0  0  0  0
   -0.1993   -2.2644   -0.9107 H   0  0  0  0  0  0  0  0  0  0  0  0
   -2.4784   -1.9733   -0.0403 H   0  0  0  0  0  0  0  0  0  0  0  0
   -3.1628    0.1742    0.9810 H   0  0  0  0  0  0  0  0  0  0  0  0
   -1.5492    2.0255    1.1772 H   0  0  0  0  0  0  0  0  0  0  0  0
    0.6762    2.9450    0.8076 H   0  0  0  0  0  0  0  0  0  0  0  0
    2.0341    1.8973    0.3280 H   0  0  0  0  0  0  0  0  0  0  0  0
  1  2  1  0
  2  3  1  0
  2 10  2  0
  3  4  2  0
  3  8  1  0
  4  5  1  0
  5  6  2  0
  6  7  1  0
  7  8  2  0
  8  9  1  0
  1 11  1  0
  4 12  1  0
  5 13  1  0
  6 14  1  0
  7 15  1  0
  9 16  1  0
  9 17  1  0
M  END
$$$$
