CCC(C)(C)CO
     RDKit          3D

 21 20  0  0  0  0  0  0  0  0999 V2000
    2.2553    0.3977   -0.0941 C   0  0  0  0  0  0  0  0  0  0  0  0
    1.1090   -0.1871    0.7393 C   0  0  0  0  0  0  0  0  0  0  0  0
   -0.2919   -0.1789    0.0539 C   0  0  0  0  0  0  0  0  0  0  0  0
   -0.2723   -1.0257   -1.2382 C   0  0  0  0  0  0  0  0  0  0  0  0
   -1.2984   -0.8132    1.0406 C   0  0  0  0  0  0  0  0  0  0  0  0
   -0.7336    1.2735   -0.2717 C   0  0  0  0  0  0  0  0  0  0  0  0
   -2.0358    1.3075   -0.7980 O   0  0  0  0  0  0  0  0  0  0  0  0
    2.0888    1.4729   -0.3076 H   0  0  0  0  0  0  0  0  0  0  0  0
    2.3888   -0.1606   -1.0426 H   0  0  0  0  0  0  0  0  0  0  0  0
    3.2008    0.3134    0.4822 H   0  0  0  0  0  0  0  0  0  0  0  0
    1.0562    0.3832    1.6931 H   0  0  0  0  0  0  0  0  0  0  0  0
    1.3838   -1.2322    1.0048 H   0  0  0  0  0  0  0  0  0  0  0  0
    0.1395   -2.0381   -1.0370 H   0  0  0  0  0  0  0  0  0  0  0  0
    0.3421   -0.5427   -2.0264 H   0  0  0  0  0  0  0  0  0  0  0  0
   -1.2992   -1.1456   -1.6457 H   0  0  0  0  0  0  0  0  0  0  0  0
   -1.3753   -0.2041    1.9672 H   0  0  0  0  0  0  0  0  0  0  0  0
   -2.3111   -0.8906    0.5901 H   0  0  0  0  0  0  0  0  0  0  0  0
   -0.9773   -1.8392    1.3234 H   0  0  0  0  0  0  0  0  0  0  0  0
   -0.0578    1.7155   -1.0328 H   0  0  0  0  0  0  0  0  0  0  0  0
   -0.6592    1.9139    0.6390 H   0  0  0  0  0  0  0  0  0  0  0  0
   -2.6525    1.4803   -0.0395 H   0  0  0  0  0  0  0  0  0  0  0  0
  1  2  1  0
  2  3  1  0
  3  4  1  0
  3  5  1  0
  3  6  1  0
  6  7  1  0
  1  8  1  0
  1  9  1  0
  1 10  1  0
  2 11  1  0
  2 12  1  0
  4 13  1  0
  4 14  1  0
  4 15  1  0
  5 16  1  0
  5 17  1  0
  5 18  1  0
  6 19  1  0
  6 20  1  0
  7 21  1  0
M  END
$$$$
