Oc1c(cccc1)C(OC)=O
     RDKit          3D

 19 19  0  0  0  0  0  0  0  0999 V2000
   -0.7635    2.2026   -1.0601 O   0  0  0  0  0  0  0  0  0  0  0  0
   -1.1392    0.9977   -0.4658 C   0  0  0  0  0  0  0  0  0  0  0  0
   -0.1631    0.0797   -0.0079 C   0  0  0  0  0  0  0  0  0  0  0  0
   -0.5901   -1.1242    0.5856 C   0  0  0  0  0  0  0  0  0  0  0  0
   -1.9508   -1.4095    0.7212 C   0  0  0  0  0  0  0  0  0  0  0  0
   -2.9055   -0.5002    0.2677 C   0  0  0  0  0  0  0  0  0  0  0  0
   -2.5028    0.6979   -0.3231 C   0  0  0  0  0  0  0  0  0  0  0  0
    1.2922    0.3490   -0.1352 C   0  0  0  0  0  0  0  0  0  0  0  0
    2.2152   -0.5928    0.3342 O   0  0  0  0  0  0  0  0  0  0  0  0
    3.6221   -0.4013    0.2452 C   0  0  0  0  0  0  0  0  0  0  0  0
    1.7043    1.4187   -0.6625 O   0  0  0  0  0  0  0  0  0  0  0  0
   -1.4501    2.8696   -1.3927 H   0  0  0  0  0  0  0  0  0  0  0  0
    0.1273   -1.8499    0.9474 H   0  0  0  0  0  0  0  0  0  0  0  0
   -2.2652   -2.3384    1.1793 H   0  0  0  0  0  0  0  0  0  0  0  0
   -3.9592   -0.7239    0.3741 H   0  0  0  0  0  0  0  0  0  0  0  0
   -3.2532    1.3963   -0.6714 H   0  0  0  0  0  0  0  0  0  0  0  0
    4.1379   -1.2808    0.6821 H   0  0  0  0  0  0  0  0  0  0  0  0
    3.9186    0.5075    0.8105 H   0  0  0  0  0  0  0  0  0  0  0  0
    3.9252   -0.2979   -0.8183 H   0  0  0  0  0  0  0  0  0  0  0  0
  1  2  1  0
  2  7  2  0
  2  3  1  0
  3  4  2  0
  3  8  1  0
  4  5  1  0
  5  6  2  0
  6  7  1  0
  8 11  2  0
  8  9  1  0
  9 10  1  0
  1 12  1  0
  4 13  1  0
  5 14  1  0
  6 15  1  0
  7 16  1  0
 10 17  1  0
 10 18  1  0
 10 19  1  0
M  END
$$$$
