c1(ccnc2)c2cccc1
     RDKit          3D

 17 18  0  0  0  0  0  0  0  0999 V2000
    0.1802   -0.6431    0.0197 C   0  0  0  0  0  0  0  0  0  0  0  0
    1.3806   -1.3647    0.0513 C   0  0  0  0  0  0  0  0  0  0  0  0
    2.5950   -0.6746    0.0435 C   0  0  0  0  0  0  0  0  0  0  0  0
    2.6104    0.6846    0.0057 N   0  0  0  0  0  0  0  0  0  0  0  0
    1.4640    1.4152   -0.0256 C   0  0  0  0  0  0  0  0  0  0  0  0
    0.2198    0.7699   -0.0194 C   0  0  0  0  0  0  0  0  0  0  0  0
   -0.9772    1.5010   -0.0512 C   0  0  0  0  0  0  0  0  0  0  0  0
   -2.2051    0.8323   -0.0442 C   0  0  0  0  0  0  0  0  0  0  0  0
   -2.2456   -0.5648   -0.0056 C   0  0  0  0  0  0  0  0  0  0  0  0
   -1.0584   -1.3031    0.0263 C   0  0  0  0  0  0  0  0  0  0  0  0
    1.3800   -2.4478    0.0815 H   0  0  0  0  0  0  0  0  0  0  0  0
    3.5281   -1.2213    0.0677 H   0  0  0  0  0  0  0  0  0  0  0  0
    1.5261    2.4959   -0.0552 H   0  0  0  0  0  0  0  0  0  0  0  0
   -0.9629    2.5840   -0.0813 H   0  0  0  0  0  0  0  0  0  0  0  0
   -3.1276    1.3979   -0.0688 H   0  0  0  0  0  0  0  0  0  0  0  0
   -3.1993   -1.0765   -0.0004 H   0  0  0  0  0  0  0  0  0  0  0  0
   -1.1079   -2.3850    0.0560 H   0  0  0  0  0  0  0  0  0  0  0  0
  1  6  1  0
  1  2  2  0
  1 10  1  0
  2  3  1  0
  3  4  2  0
  4  5  1  0
  5  6  2  0
  6  7  1  0
  7  8  2  0
  8  9  1  0
  9 10  2  0
  2 11  1  0
  3 12  1  0
  5 13  1  0
  7 14  1  0
  8 15  1  0
  9 16  1  0
 10 17  1  0
M  END
$$$$
