c1(c2nc(cccc4)c4cc2)nc(cccc3)c3cc1
     RDKit          3D

 32 35  0  0  0  0  0  0  0  0999 V2000
    0.7426   -0.6716   -0.0785 C   0  0  0  0  0  0  0  0  0  0  0  0
   -0.7297   -0.6500    0.0924 C   0  0  0  0  0  0  0  0  0  0  0  0
   -1.4104    0.4727   -0.2731 N   0  0  0  0  0  0  0  0  0  0  0  0
   -2.7593    0.5819   -0.1422 C   0  0  0  0  0  0  0  0  0  0  0  0
   -3.4119    1.7549   -0.5384 C   0  0  0  0  0  0  0  0  0  0  0  0
   -4.7997    1.8628   -0.4026 C   0  0  0  0  0  0  0  0  0  0  0  0
   -5.5390    0.8011    0.1294 C   0  0  0  0  0  0  0  0  0  0  0  0
   -4.8949   -0.3745    0.5290 C   0  0  0  0  0  0  0  0  0  0  0  0
   -3.5031   -0.4903    0.3951 C   0  0  0  0  0  0  0  0  0  0  0  0
   -2.8275   -1.6496    0.7902 C   0  0  0  0  0  0  0  0  0  0  0  0
   -1.4410   -1.7326    0.6449 C   0  0  0  0  0  0  0  0  0  0  0  0
    1.4008    0.5157   -0.1989 N   0  0  0  0  0  0  0  0  0  0  0  0
    2.7479    0.5881   -0.3681 C   0  0  0  0  0  0  0  0  0  0  0  0
    3.3769    1.8333   -0.4804 C   0  0  0  0  0  0  0  0  0  0  0  0
    4.7630    1.9032   -0.6537 C   0  0  0  0  0  0  0  0  0  0  0  0
    5.5241    0.7312   -0.7158 C   0  0  0  0  0  0  0  0  0  0  0  0
    4.9036   -0.5176   -0.6055 C   0  0  0  0  0  0  0  0  0  0  0  0
    3.5137   -0.5956   -0.4309 C   0  0  0  0  0  0  0  0  0  0  0  0
    2.8614   -1.8283   -0.3229 C   0  0  0  0  0  0  0  0  0  0  0  0
    1.4761   -1.8716   -0.1510 C   0  0  0  0  0  0  0  0  0  0  0  0
   -2.8473    2.5818   -0.9513 H   0  0  0  0  0  0  0  0  0  0  0  0
   -5.3031    2.7704   -0.7098 H   0  0  0  0  0  0  0  0  0  0  0  0
   -6.6128    0.8900    0.2327 H   0  0  0  0  0  0  0  0  0  0  0  0
   -5.4805   -1.1879    0.9405 H   0  0  0  0  0  0  0  0  0  0  0  0
   -3.3683   -2.4858    1.2173 H   0  0  0  0  0  0  0  0  0  0  0  0
   -0.9388   -2.6263    0.9873 H   0  0  0  0  0  0  0  0  0  0  0  0
    2.7954    2.7458   -0.4334 H   0  0  0  0  0  0  0  0  0  0  0  0
    5.2481    2.8669   -0.7400 H   0  0  0  0  0  0  0  0  0  0  0  0
    6.5964    0.7910   -0.8504 H   0  0  0  0  0  0  0  0  0  0  0  0
    5.5059   -1.4168   -0.6568 H   0  0  0  0  0  0  0  0  0  0  0  0
    3.4194   -2.7554   -0.3791 H   0  0  0  0  0  0  0  0  0  0  0  0
    0.9921   -2.8367   -0.1025 H   0  0  0  0  0  0  0  0  0  0  0  0
  1 12  2  0
  1  2  1  0
  1 20  1  0
  2 11  1  0
  2  3  2  0
  3  4  1  0
  4  9  2  0
  4  5  1  0
  5  6  2  0
  6  7  1  0
  7  8  2  0
  8  9  1  0
  9 10  1  0
 10 11  2  0
 12 13  1  0
 13 14  2  0
 13 18  1  0
 14 15  1  0
 15 16  2  0
 16 17  1  0
 17 18  2  0
 18 19  1  0
 19 20  2  0
  5 21  1  0
  6 22  1  0
  7 23  1  0
  8 24  1  0
 10 25  1  0
 11 26  1  0
 14 27  1  0
 15 28  1  0
 16 29  1  0
 17 30  1  0
 19 31  1  0
 20 32  1  0
M  END
$$$$
