N#Cc(c(Cl)ccc1)c1Cl
     RDKit          3D

 13 13  0  0  0  0  0  0  0  0999 V2000
    3.5823    0.1126    0.5642 N   0  0  0  0  0  0  0  0  0  0  0  0
    2.4397    0.0767    0.3842 C   0  0  0  0  0  0  0  0  0  0  0  0
    1.0139    0.0319    0.1597 C   0  0  0  0  0  0  0  0  0  0  0  0
    0.3495   -1.2072    0.0650 C   0  0  0  0  0  0  0  0  0  0  0  0
    1.2196   -2.7311    0.2147 Cl  0  0  0  0  0  0  0  0  0  0  0  0
   -1.0326   -1.2426   -0.1527 C   0  0  0  0  0  0  0  0  0  0  0  0
   -1.7565   -0.0552   -0.2766 C   0  0  0  0  0  0  0  0  0  0  0  0
   -1.1038    1.1754   -0.1837 C   0  0  0  0  0  0  0  0  0  0  0  0
    0.2779    1.2269    0.0338 C   0  0  0  0  0  0  0  0  0  0  0  0
    1.0568    2.8026    0.1438 Cl  0  0  0  0  0  0  0  0  0  0  0  0
   -1.5478   -2.1920   -0.2262 H   0  0  0  0  0  0  0  0  0  0  0  0
   -2.8252   -0.0888   -0.4449 H   0  0  0  0  0  0  0  0  0  0  0  0
   -1.6738    2.0907   -0.2811 H   0  0  0  0  0  0  0  0  0  0  0  0
  1  2  3  0
  2  3  1  0
  3  4  2  0
  3  9  1  0
  4  6  1  0
  4  5  1  0
  6  7  2  0
  7  8  1  0
  8  9  2  0
  9 10  1  0
  6 11  1  0
  7 12  1  0
  8 13  1  0
M  END
$$$$
