O=C(c1ccc(O)cc1)OCC
     RDKit          3D

 22 22  0  0  0  0  0  0  0  0999 V2000
   -1.2556   -1.1226   -1.6088 O   0  0  0  0  0  0  0  0  0  0  0  0
   -0.8159   -0.6321   -0.5322 C   0  0  0  0  0  0  0  0  0  0  0  0
    0.6078   -0.2450   -0.4205 C   0  0  0  0  0  0  0  0  0  0  0  0
    1.4866   -0.4166   -1.5063 C   0  0  0  0  0  0  0  0  0  0  0  0
    2.8308   -0.0479   -1.3944 C   0  0  0  0  0  0  0  0  0  0  0  0
    3.3151    0.4955   -0.2012 C   0  0  0  0  0  0  0  0  0  0  0  0
    4.6566    0.8581   -0.1045 O   0  0  0  0  0  0  0  0  0  0  0  0
    2.4476    0.6702    0.8845 C   0  0  0  0  0  0  0  0  0  0  0  0
    1.1028    0.3027    0.7765 C   0  0  0  0  0  0  0  0  0  0  0  0
   -1.6725   -0.4590    0.5628 O   0  0  0  0  0  0  0  0  0  0  0  0
   -3.0672   -0.7548    0.5257 C   0  0  0  0  0  0  0  0  0  0  0  0
   -3.8268    0.3285   -0.2312 C   0  0  0  0  0  0  0  0  0  0  0  0
    1.1366   -0.8351   -2.4417 H   0  0  0  0  0  0  0  0  0  0  0  0
    3.4971   -0.1849   -2.2367 H   0  0  0  0  0  0  0  0  0  0  0  0
    5.0379    1.2546    0.7466 H   0  0  0  0  0  0  0  0  0  0  0  0
    2.8141    1.0905    1.8124 H   0  0  0  0  0  0  0  0  0  0  0  0
    0.4526    0.4482    1.6300 H   0  0  0  0  0  0  0  0  0  0  0  0
   -3.4476   -0.7943    1.5681 H   0  0  0  0  0  0  0  0  0  0  0  0
   -3.2410   -1.7481    0.0576 H   0  0  0  0  0  0  0  0  0  0  0  0
   -4.9153    0.1113   -0.2012 H   0  0  0  0  0  0  0  0  0  0  0  0
   -3.4996    0.3628   -1.2912 H   0  0  0  0  0  0  0  0  0  0  0  0
   -3.6439    1.3179    0.2388 H   0  0  0  0  0  0  0  0  0  0  0  0
  1  2  2  0
  2  3  1  0
  2 10  1  0
  3  9  2  0
  3  4  1  0
  4  5  2  0
  5  6  1  0
  6  8  2  0
  6  7  1  0
  8  9  1  0
 10 11  1  0
 11 12  1  0
  4 13  1  0
  5 14  1  0
  7 15  1  0
  8 16  1  0
  9 17  1  0
 11 18  1  0
 11 19  1  0
 12 20  1  0
 12 21  1  0
 12 22  1  0
M  END
$$$$
