c1(cccc2)c2[nH]cc1
     RDKit          3D

 16 17  0  0  0  0  0  0  0  0999 V2000
    0.2836   -0.7116   -0.1131 C   0  0  0  0  0  0  0  0  0  0  0  0
   -0.9379   -1.3653   -0.2623 C   0  0  0  0  0  0  0  0  0  0  0  0
   -2.1103   -0.5929   -0.1659 C   0  0  0  0  0  0  0  0  0  0  0  0
   -2.0336    0.7976    0.0744 C   0  0  0  0  0  0  0  0  0  0  0  0
   -0.7838    1.4280    0.2205 C   0  0  0  0  0  0  0  0  0  0  0  0
    0.3594    0.6362    0.1199 C   0  0  0  0  0  0  0  0  0  0  0  0
    1.6387    1.0305    0.2264 N   0  0  0  0  0  0  0  0  0  0  0  0
    2.3846   -0.0857    0.0581 C   0  0  0  0  0  0  0  0  0  0  0  0
    1.5729   -1.1954   -0.1566 C   0  0  0  0  0  0  0  0  0  0  0  0
   -0.9852   -2.4309   -0.4462 H   0  0  0  0  0  0  0  0  0  0  0  0
   -3.0767   -1.0671   -0.2766 H   0  0  0  0  0  0  0  0  0  0  0  0
   -2.9417    1.3818    0.1467 H   0  0  0  0  0  0  0  0  0  0  0  0
   -0.7141    2.4922    0.4048 H   0  0  0  0  0  0  0  0  0  0  0  0
    1.9897    1.9981    0.4028 H   0  0  0  0  0  0  0  0  0  0  0  0
    3.4661   -0.0983    0.0890 H   0  0  0  0  0  0  0  0  0  0  0  0
    1.8884   -2.2171   -0.3218 H   0  0  0  0  0  0  0  0  0  0  0  0
  1  6  1  0
  1  9  1  0
  1  2  2  0
  2  3  1  0
  3  4  2  0
  4  5  1  0
  5  6  2  0
  6  7  1  0
  7  8  1  0
  8  9  2  0
  2 10  1  0
  3 11  1  0
  4 12  1  0
  5 13  1  0
  7 14  1  0
  8 15  1  0
  9 16  1  0
M  END
$$$$
