Clc1c(Cl)cc(Cl)cc1
     RDKit          3D

 12 12  0  0  0  0  0  0  0  0999 V2000
   -3.0686    0.6500    0.0451 Cl  0  0  0  0  0  0  0  0  0  0  0  0
   -1.3465    0.2956    0.0198 C   0  0  0  0  0  0  0  0  0  0  0  0
   -0.8741   -1.0289    0.0109 C   0  0  0  0  0  0  0  0  0  0  0  0
   -1.9837   -2.3930    0.0246 Cl  0  0  0  0  0  0  0  0  0  0  0  0
    0.5043   -1.2756   -0.0093 C   0  0  0  0  0  0  0  0  0  0  0  0
    1.4107   -0.2099   -0.0206 C   0  0  0  0  0  0  0  0  0  0  0  0
    3.1361   -0.5248   -0.0459 Cl  0  0  0  0  0  0  0  0  0  0  0  0
    0.9398    1.1069   -0.0117 C   0  0  0  0  0  0  0  0  0  0  0  0
   -0.4349    1.3585    0.0084 C   0  0  0  0  0  0  0  0  0  0  0  0
    0.8708   -2.2945   -0.0162 H   0  0  0  0  0  0  0  0  0  0  0  0
    1.6371    1.9349   -0.0204 H   0  0  0  0  0  0  0  0  0  0  0  0
   -0.7911    2.3809    0.0152 H   0  0  0  0  0  0  0  0  0  0  0  0
  1  2  1  0
  2  9  2  0
  2  3  1  0
  3  4  1  0
  3  5  2  0
  5  6  1  0
  6  8  2  0
  6  7  1  0
  8  9  1  0
  5 10  1  0
  8 11  1  0
  9 12  1  0
M  END
$$$$
