O=C(c(cc1)ccc1OC)OC
     RDKit          3D

 22 22  0  0  0  0  0  0  0  0999 V2000
    2.7936   -1.8123    0.2085 O   0  0  0  0  0  0  0  0  0  0  0  0
    2.2521   -0.6721    0.2177 C   0  0  0  0  0  0  0  0  0  0  0  0
    0.7775   -0.5499    0.1972 C   0  0  0  0  0  0  0  0  0  0  0  0
   -0.0379   -1.6950    0.1673 C   0  0  0  0  0  0  0  0  0  0  0  0
   -1.4302   -1.5729    0.1481 C   0  0  0  0  0  0  0  0  0  0  0  0
    0.1700    0.7172    0.2073 C   0  0  0  0  0  0  0  0  0  0  0  0
   -1.2229    0.8374    0.1880 C   0  0  0  0  0  0  0  0  0  0  0  0
   -2.0348   -0.3116    0.1582 C   0  0  0  0  0  0  0  0  0  0  0  0
   -3.4358   -0.2434    0.1379 O   0  0  0  0  0  0  0  0  0  0  0  0
   -4.1816    0.9695    0.1452 C   0  0  0  0  0  0  0  0  0  0  0  0
    3.0467    0.4793    0.2473 O   0  0  0  0  0  0  0  0  0  0  0  0
    4.4682    0.4311    0.2681 C   0  0  0  0  0  0  0  0  0  0  0  0
    0.3989   -2.6859    0.1588 H   0  0  0  0  0  0  0  0  0  0  0  0
   -2.0437   -2.4648    0.1251 H   0  0  0  0  0  0  0  0  0  0  0  0
    0.7701    1.6183    0.2302 H   0  0  0  0  0  0  0  0  0  0  0  0
   -1.6576    1.8276    0.1966 H   0  0  0  0  0  0  0  0  0  0  0  0
   -5.2644    0.7294    0.1251 H   0  0  0  0  0  0  0  0  0  0  0  0
   -3.9625    1.5470    1.0680 H   0  0  0  0  0  0  0  0  0  0  0  0
   -3.9349    1.5748   -0.7526 H   0  0  0  0  0  0  0  0  0  0  0  0
    4.8446   -0.0809   -0.6427 H   0  0  0  0  0  0  0  0  0  0  0  0
    4.8676    1.4658    0.2900 H   0  0  0  0  0  0  0  0  0  0  0  0
    4.8171   -0.1086    1.1739 H   0  0  0  0  0  0  0  0  0  0  0  0
  1  2  2  0
  2  3  1  0
  2 11  1  0
  3  4  2  0
  3  6  1  0
  4  5  1  0
  5  8  2  0
  6  7  2  0
  7  8  1  0
  8  9  1  0
  9 10  1  0
 11 12  1  0
  4 13  1  0
  5 14  1  0
  6 15  1  0
  7 16  1  0
 10 17  1  0
 10 18  1  0
 10 19  1  0
 12 20  1  0
 12 21  1  0
 12 22  1  0
M  END
$$$$
