c1(NNc2ccccc2)ccccc1
     RDKit          3D

 26 27  0  0  0  0  0  0  0  0999 V2000
    1.8865   -0.0938    0.2536 C   0  0  0  0  0  0  0  0  0  0  0  0
    0.4761   -0.3619    0.3333 N   0  0  0  0  0  0  0  0  0  0  0  0
   -0.4761    0.3620   -0.4123 N   0  0  0  0  0  0  0  0  0  0  0  0
   -1.8865    0.0938   -0.3326 C   0  0  0  0  0  0  0  0  0  0  0  0
   -2.3797   -1.1838   -0.0046 C   0  0  0  0  0  0  0  0  0  0  0  0
   -3.7583   -1.4142    0.0514 C   0  0  0  0  0  0  0  0  0  0  0  0
   -4.6548   -0.3800   -0.2277 C   0  0  0  0  0  0  0  0  0  0  0  0
   -4.1748    0.8855   -0.5721 C   0  0  0  0  0  0  0  0  0  0  0  0
   -2.7977    1.1204   -0.6304 C   0  0  0  0  0  0  0  0  0  0  0  0
    2.3797    1.1838   -0.0744 C   0  0  0  0  0  0  0  0  0  0  0  0
    3.7583    1.4142   -0.1305 C   0  0  0  0  0  0  0  0  0  0  0  0
    4.6548    0.3800    0.1486 C   0  0  0  0  0  0  0  0  0  0  0  0
    4.1748   -0.8856    0.4929 C   0  0  0  0  0  0  0  0  0  0  0  0
    2.7977   -1.1204    0.5513 C   0  0  0  0  0  0  0  0  0  0  0  0
    0.1691   -1.1496    0.9454 H   0  0  0  0  0  0  0  0  0  0  0  0
   -0.1691    1.1497   -1.0244 H   0  0  0  0  0  0  0  0  0  0  0  0
   -1.7119   -2.0133    0.1792 H   0  0  0  0  0  0  0  0  0  0  0  0
   -4.1317   -2.3985    0.3029 H   0  0  0  0  0  0  0  0  0  0  0  0
   -5.7210   -0.5615   -0.1850 H   0  0  0  0  0  0  0  0  0  0  0  0
   -4.8697    1.6849   -0.7952 H   0  0  0  0  0  0  0  0  0  0  0  0
   -2.4392    2.1064   -0.8986 H   0  0  0  0  0  0  0  0  0  0  0  0
    1.7119    2.0133   -0.2582 H   0  0  0  0  0  0  0  0  0  0  0  0
    4.1318    2.3985   -0.3820 H   0  0  0  0  0  0  0  0  0  0  0  0
    5.7210    0.5614    0.1058 H   0  0  0  0  0  0  0  0  0  0  0  0
    4.8696   -1.6849    0.7160 H   0  0  0  0  0  0  0  0  0  0  0  0
    2.4392   -2.1064    0.8195 H   0  0  0  0  0  0  0  0  0  0  0  0
  1 14  1  0
  1 10  2  0
  1  2  1  0
  2  3  1  0
  3  4  1  0
  4  9  1  0
  4  5  2  0
  5  6  1  0
  6  7  2  0
  7  8  1  0
  8  9  2  0
 10 11  1  0
 11 12  2  0
 12 13  1  0
 13 14  2  0
  2 15  1  0
  3 16  1  0
  5 17  1  0
  6 18  1  0
  7 19  1  0
  8 20  1  0
  9 21  1  0
 10 22  1  0
 11 23  1  0
 12 24  1  0
 13 25  1  0
 14 26  1  0
M  END
$$$$
