CC(Nc1ccc(N)cc1)=O
     RDKit          3D

 21 21  0  0  0  0  0  0  0  0999 V2000
   -4.0030    0.3786    0.0439 C   0  0  0  0  0  0  0  0  0  0  0  0
   -2.6169   -0.1577   -0.1094 C   0  0  0  0  0  0  0  0  0  0  0  0
   -1.5014    0.7463   -0.1227 N   0  0  0  0  0  0  0  0  0  0  0  0
   -0.1251    0.3322   -0.0755 C   0  0  0  0  0  0  0  0  0  0  0  0
    0.2812   -0.7850    0.6767 C   0  0  0  0  0  0  0  0  0  0  0  0
    1.6297   -1.1516    0.7250 C   0  0  0  0  0  0  0  0  0  0  0  0
    2.5913   -0.4011    0.0351 C   0  0  0  0  0  0  0  0  0  0  0  0
    3.9702   -0.7767    0.0855 N   0  0  0  0  0  0  0  0  0  0  0  0
    2.1930    0.7255   -0.6967 C   0  0  0  0  0  0  0  0  0  0  0  0
    0.8451    1.0935   -0.7447 C   0  0  0  0  0  0  0  0  0  0  0  0
   -2.4446   -1.3971   -0.2627 O   0  0  0  0  0  0  0  0  0  0  0  0
   -4.7470   -0.4462    0.0259 H   0  0  0  0  0  0  0  0  0  0  0  0
   -4.0867    0.9176    1.0105 H   0  0  0  0  0  0  0  0  0  0  0  0
   -4.2242    1.0807   -0.7868 H   0  0  0  0  0  0  0  0  0  0  0  0
   -1.7040    1.7626   -0.2603 H   0  0  0  0  0  0  0  0  0  0  0  0
   -0.4354   -1.3592    1.2484 H   0  0  0  0  0  0  0  0  0  0  0  0
    1.9262   -2.0150    1.3073 H   0  0  0  0  0  0  0  0  0  0  0  0
    4.6944   -0.2216   -0.4227 H   0  0  0  0  0  0  0  0  0  0  0  0
    4.2769   -1.6130    0.6308 H   0  0  0  0  0  0  0  0  0  0  0  0
    2.9265    1.3192   -1.2277 H   0  0  0  0  0  0  0  0  0  0  0  0
    0.5537    1.9680   -1.3129 H   0  0  0  0  0  0  0  0  0  0  0  0
  1  2  1  0
  2  3  1  0
  2 11  2  0
  3  4  1  0
  4 10  2  0
  4  5  1  0
  5  6  2  0
  6  7  1  0
  7  9  2  0
  7  8  1  0
  9 10  1  0
  1 12  1  0
  1 13  1  0
  1 14  1  0
  3 15  1  0
  5 16  1  0
  6 17  1  0
  8 18  1  0
  8 19  1  0
  9 20  1  0
 10 21  1  0
M  END
$$$$
