CN(C(OC1=CC(CC(C)(C1)C)=O)=O)C
     RDKit          3D

 32 32  0  0  0  0  0  0  0  0999 V2000
    3.3897    2.1495    0.1146 C   0  0  0  0  0  0  0  0  0  0  0  0
    3.5339    0.7803    0.6140 N   0  0  0  0  0  0  0  0  0  0  0  0
    2.4186   -0.1226    0.5241 C   0  0  0  0  0  0  0  0  0  0  0  0
    1.2217    0.3105   -0.0663 O   0  0  0  0  0  0  0  0  0  0  0  0
   -0.0179   -0.3424    0.0258 C   0  0  0  0  0  0  0  0  0  0  0  0
   -0.3717   -1.0389    1.1210 C   0  0  0  0  0  0  0  0  0  0  0  0
   -1.6914   -1.6829    1.2259 C   0  0  0  0  0  0  0  0  0  0  0  0
   -2.6725   -1.6056    0.0906 C   0  0  0  0  0  0  0  0  0  0  0  0
   -2.4505   -0.3349   -0.7680 C   0  0  0  0  0  0  0  0  0  0  0  0
   -2.8910    0.9268    0.0105 C   0  0  0  0  0  0  0  0  0  0  0  0
   -0.9512   -0.2321   -1.1572 C   0  0  0  0  0  0  0  0  0  0  0  0
   -3.2997   -0.4377   -2.0507 C   0  0  0  0  0  0  0  0  0  0  0  0
   -1.9853   -2.3351    2.2624 O   0  0  0  0  0  0  0  0  0  0  0  0
    2.5366   -1.3116    0.9308 O   0  0  0  0  0  0  0  0  0  0  0  0
    4.7946    0.3260    1.2074 C   0  0  0  0  0  0  0  0  0  0  0  0
    3.1452    2.1289   -0.9684 H   0  0  0  0  0  0  0  0  0  0  0  0
    4.3224    2.7363    0.2494 H   0  0  0  0  0  0  0  0  0  0  0  0
    2.5726    2.6637    0.6636 H   0  0  0  0  0  0  0  0  0  0  0  0
    0.2863   -1.0849    1.9784 H   0  0  0  0  0  0  0  0  0  0  0  0
   -3.7106   -1.6226    0.4903 H   0  0  0  0  0  0  0  0  0  0  0  0
   -2.5367   -2.5152   -0.5345 H   0  0  0  0  0  0  0  0  0  0  0  0
   -2.7421    1.8384   -0.6074 H   0  0  0  0  0  0  0  0  0  0  0  0
   -3.9671    0.8627    0.2810 H   0  0  0  0  0  0  0  0  0  0  0  0
   -2.3086    1.0494    0.9477 H   0  0  0  0  0  0  0  0  0  0  0  0
   -0.6897   -1.0498   -1.8641 H   0  0  0  0  0  0  0  0  0  0  0  0
   -0.7622    0.7299   -1.6825 H   0  0  0  0  0  0  0  0  0  0  0  0
   -3.1554    0.4610   -2.6888 H   0  0  0  0  0  0  0  0  0  0  0  0
   -3.0132   -1.3329   -2.6439 H   0  0  0  0  0  0  0  0  0  0  0  0
   -4.3795   -0.5196   -1.7995 H   0  0  0  0  0  0  0  0  0  0  0  0
    5.5593    1.1308    1.2129 H   0  0  0  0  0  0  0  0  0  0  0  0
    4.6201    0.0049    2.2561 H   0  0  0  0  0  0  0  0  0  0  0  0
    5.1952   -0.5303    0.6248 H   0  0  0  0  0  0  0  0  0  0  0  0
  1  2  1  0
  2 15  1  0
  2  3  1  0
  3 14  2  0
  3  4  1  0
  4  5  1  0
  5 11  1  0
  5  6  2  0
  6  7  1  0
  7  8  1  0
  7 13  2  0
  8  9  1  0
  9 10  1  0
  9 12  1  0
  9 11  1  0
  1 16  1  0
  1 17  1  0
  1 18  1  0
  6 19  1  0
  8 20  1  0
  8 21  1  0
 10 22  1  0
 10 23  1  0
 10 24  1  0
 11 25  1  0
 11 26  1  0
 12 27  1  0
 12 28  1  0
 12 29  1  0
 15 30  1  0
 15 31  1  0
 15 32  1  0
M  END
$$$$
