O=C(O)COc1ccccc1
     RDKit          3D

 19 19  0  0  0  0  0  0  0  0999 V2000
   -2.8821   -0.2961   -1.2520 O   0  0  0  0  0  0  0  0  0  0  0  0
   -2.6900   -0.2852   -0.0078 C   0  0  0  0  0  0  0  0  0  0  0  0
   -3.2803    0.7098    0.7662 O   0  0  0  0  0  0  0  0  0  0  0  0
   -1.8561   -1.3580    0.6266 C   0  0  0  0  0  0  0  0  0  0  0  0
   -0.6094   -1.4992   -0.0547 O   0  0  0  0  0  0  0  0  0  0  0  0
    0.4358   -0.5611   -0.0363 C   0  0  0  0  0  0  0  0  0  0  0  0
    0.3921    0.6115    0.7452 C   0  0  0  0  0  0  0  0  0  0  0  0
    1.4629    1.5111    0.7245 C   0  0  0  0  0  0  0  0  0  0  0  0
    2.5826    1.2508   -0.0695 C   0  0  0  0  0  0  0  0  0  0  0  0
    2.6342    0.0893   -0.8439 C   0  0  0  0  0  0  0  0  0  0  0  0
    1.5657   -0.8123   -0.8259 C   0  0  0  0  0  0  0  0  0  0  0  0
   -3.1556    0.7393    1.7710 H   0  0  0  0  0  0  0  0  0  0  0  0
   -2.4093   -2.3170    0.5512 H   0  0  0  0  0  0  0  0  0  0  0  0
   -1.6835   -1.1554    1.7050 H   0  0  0  0  0  0  0  0  0  0  0  0
   -0.4585    0.8365    1.3724 H   0  0  0  0  0  0  0  0  0  0  0  0
    1.4249    2.4103    1.3257 H   0  0  0  0  0  0  0  0  0  0  0  0
    3.4102    1.9483   -0.0838 H   0  0  0  0  0  0  0  0  0  0  0  0
    3.5021   -0.1128   -1.4581 H   0  0  0  0  0  0  0  0  0  0  0  0
    1.6141   -1.7099   -1.4294 H   0  0  0  0  0  0  0  0  0  0  0  0
  1  2  2  0
  2  4  1  0
  2  3  1  0
  4  5  1  0
  5  6  1  0
  6 11  2  0
  6  7  1  0
  7  8  2  0
  8  9  1  0
  9 10  2  0
 10 11  1  0
  3 12  1  0
  4 13  1  0
  4 14  1  0
  7 15  1  0
  8 16  1  0
  9 17  1  0
 10 18  1  0
 11 19  1  0
M  END
$$$$
