Nc1ccc(O)cc1
     RDKit          3D

 15 15  0  0  0  0  0  0  0  0999 V2000
   -2.5723   -0.0651    0.4159 N   0  0  0  0  0  0  0  0  0  0  0  0
   -1.1599   -0.0026    0.2017 C   0  0  0  0  0  0  0  0  0  0  0  0
   -0.4998   -1.0455   -0.4646 C   0  0  0  0  0  0  0  0  0  0  0  0
    0.8816   -0.9838   -0.6738 C   0  0  0  0  0  0  0  0  0  0  0  0
    1.6136    0.1218   -0.2182 C   0  0  0  0  0  0  0  0  0  0  0  0
    2.9899    0.1949   -0.4205 O   0  0  0  0  0  0  0  0  0  0  0  0
    0.9565    1.1628    0.4466 C   0  0  0  0  0  0  0  0  0  0  0  0
   -0.4249    1.1022    0.6564 C   0  0  0  0  0  0  0  0  0  0  0  0
   -3.1281   -0.8836    0.0810 H   0  0  0  0  0  0  0  0  0  0  0  0
   -3.0726    0.7065    0.9110 H   0  0  0  0  0  0  0  0  0  0  0  0
   -1.0549   -1.9042   -0.8209 H   0  0  0  0  0  0  0  0  0  0  0  0
    1.3815   -1.7940   -1.1892 H   0  0  0  0  0  0  0  0  0  0  0  0
    3.4946   -0.5426   -0.8983 H   0  0  0  0  0  0  0  0  0  0  0  0
    1.5167    2.0189    0.8006 H   0  0  0  0  0  0  0  0  0  0  0  0
   -0.9217    1.9143    1.1722 H   0  0  0  0  0  0  0  0  0  0  0  0
  1  2  1  0
  2  8  2  0
  2  3  1  0
  3  4  2  0
  4  5  1  0
  5  7  2  0
  5  6  1  0
  7  8  1  0
  1  9  1  0
  1 10  1  0
  3 11  1  0
  4 12  1  0
  6 13  1  0
  7 14  1  0
  8 15  1  0
M  END
$$$$
