CC(O)CCCCCC
     RDKit          3D

 27 26  0  0  1  0  0  0  0  0999 V2000
    3.0421    1.2450    1.0411 C   0  0  0  0  0  0  0  0  0  0  0  0
    2.4047    0.8729   -0.3035 C   0  0  1  0  0  0  0  0  0  0  0  0
    3.4177    0.5960   -1.2355 O   0  0  0  0  0  0  0  0  0  0  0  0
    1.4942   -0.3634   -0.1881 C   0  0  0  0  0  0  0  0  0  0  0  0
    0.2236   -0.0945    0.6391 C   0  0  0  0  0  0  0  0  0  0  0  0
   -0.7557   -1.2814    0.5970 C   0  0  0  0  0  0  0  0  0  0  0  0
   -1.5949   -1.3326   -0.6998 C   0  0  0  0  0  0  0  0  0  0  0  0
   -3.0290   -0.8068   -0.5219 C   0  0  0  0  0  0  0  0  0  0  0  0
   -3.0815    0.6941   -0.2440 C   0  0  0  0  0  0  0  0  0  0  0  0
    3.5868    0.3763    1.4689 H   0  0  0  0  0  0  0  0  0  0  0  0
    3.7622    2.0785    0.8985 H   0  0  0  0  0  0  0  0  0  0  0  0
    2.2707    1.5871    1.7614 H   0  0  0  0  0  0  0  0  0  0  0  0
    1.7935    1.7333   -0.6650 H   0  0  0  0  0  0  0  0  0  0  0  0
    3.7865    1.4699   -1.5298 H   0  0  0  0  0  0  0  0  0  0  0  0
    2.0620   -1.2070    0.2630 H   0  0  0  0  0  0  0  0  0  0  0  0
    1.2036   -0.6718   -1.2152 H   0  0  0  0  0  0  0  0  0  0  0  0
    0.5126    0.0688    1.6989 H   0  0  0  0  0  0  0  0  0  0  0  0
   -0.2765    0.8294    0.2795 H   0  0  0  0  0  0  0  0  0  0  0  0
   -1.4241   -1.2292    1.4842 H   0  0  0  0  0  0  0  0  0  0  0  0
   -0.1820   -2.2288    0.7017 H   0  0  0  0  0  0  0  0  0  0  0  0
   -1.0999   -0.7858   -1.5308 H   0  0  0  0  0  0  0  0  0  0  0  0
   -1.6688   -2.3943   -1.0218 H   0  0  0  0  0  0  0  0  0  0  0  0
   -3.5369   -1.3553    0.3009 H   0  0  0  0  0  0  0  0  0  0  0  0
   -3.5951   -1.0087   -1.4570 H   0  0  0  0  0  0  0  0  0  0  0  0
   -2.6493    0.9209    0.7529 H   0  0  0  0  0  0  0  0  0  0  0  0
   -4.1387    1.0334   -0.2473 H   0  0  0  0  0  0  0  0  0  0  0  0
   -2.5278    1.2541   -1.0273 H   0  0  0  0  0  0  0  0  0  0  0  0
  1  2  1  0
  2  4  1  0
  2  3  1  0
  4  5  1  0
  5  6  1  0
  6  7  1  0
  7  8  1  0
  8  9  1  0
  1 10  1  0
  1 11  1  0
  1 12  1  0
  2 13  1  6
  3 14  1  0
  4 15  1  0
  4 16  1  0
  5 17  1  0
  5 18  1  0
  6 19  1  0
  6 20  1  0
  7 21  1  0
  7 22  1  0
  8 23  1  0
  8 24  1  0
  9 25  1  0
  9 26  1  0
  9 27  1  0
M  END
$$$$
