Oc1ccc(C=O)cc1
     RDKit          3D

 15 15  0  0  0  0  0  0  0  0999 V2000
    2.9898    0.2543   -0.5030 O   0  0  0  0  0  0  0  0  0  0  0  0
    1.6215    0.1515   -0.2631 C   0  0  0  0  0  0  0  0  0  0  0  0
    0.8721   -0.8870   -0.8319 C   0  0  0  0  0  0  0  0  0  0  0  0
   -0.5010   -0.9800   -0.5840 C   0  0  0  0  0  0  0  0  0  0  0  0
   -1.1393   -0.0356    0.2354 C   0  0  0  0  0  0  0  0  0  0  0  0
   -2.5878   -0.1490    0.4860 C   0  0  0  0  0  0  0  0  0  0  0  0
   -3.1889    0.6829    1.2166 O   0  0  0  0  0  0  0  0  0  0  0  0
   -0.3825    1.0045    0.8036 C   0  0  0  0  0  0  0  0  0  0  0  0
    0.9906    1.0949    0.5538 C   0  0  0  0  0  0  0  0  0  0  0  0
    3.4760   -0.4134   -1.0902 H   0  0  0  0  0  0  0  0  0  0  0  0
    1.3522   -1.6218   -1.4656 H   0  0  0  0  0  0  0  0  0  0  0  0
   -1.0649   -1.7893   -1.0318 H   0  0  0  0  0  0  0  0  0  0  0  0
   -3.1527   -0.9573    0.0390 H   0  0  0  0  0  0  0  0  0  0  0  0
   -0.8501    1.7461    1.4393 H   0  0  0  0  0  0  0  0  0  0  0  0
    1.5650    1.8992    0.9957 H   0  0  0  0  0  0  0  0  0  0  0  0
  1  2  1  0
  2  9  2  0
  2  3  1  0
  3  4  2  0
  4  5  1  0
  5  8  2  0
  5  6  1  0
  6  7  2  0
  8  9  1  0
  1 10  1  0
  3 11  1  0
  4 12  1  0
  6 13  1  0
  8 14  1  0
  9 15  1  0
M  END
$$$$
