C1CCCN1
     RDKit          3D

 14 14  0  0  0  0  0  0  0  0999 V2000
    0.3564    1.0982    0.5908 C   0  0  0  0  0  0  0  0  0  0  0  0
    1.1563   -0.0263   -0.0329 C   0  0  0  0  0  0  0  0  0  0  0  0
    0.1624   -1.1526   -0.1577 C   0  0  0  0  0  0  0  0  0  0  0  0
   -1.1885   -0.4617   -0.2648 C   0  0  0  0  0  0  0  0  0  0  0  0
   -1.0420    0.9218    0.1994 N   0  0  0  0  0  0  0  0  0  0  0  0
    0.7454    2.0892    0.2658 H   0  0  0  0  0  0  0  0  0  0  0  0
    0.4278    1.0374    1.6986 H   0  0  0  0  0  0  0  0  0  0  0  0
    1.5083    0.2792   -1.0431 H   0  0  0  0  0  0  0  0  0  0  0  0
    2.0261   -0.3118    0.5977 H   0  0  0  0  0  0  0  0  0  0  0  0
    0.1930   -1.7830    0.7586 H   0  0  0  0  0  0  0  0  0  0  0  0
    0.3734   -1.7835   -1.0485 H   0  0  0  0  0  0  0  0  0  0  0  0
   -1.5403   -0.4839   -1.3216 H   0  0  0  0  0  0  0  0  0  0  0  0
   -1.9401   -0.9857    0.3637 H   0  0  0  0  0  0  0  0  0  0  0  0
   -1.2383    1.5625   -0.6060 H   0  0  0  0  0  0  0  0  0  0  0  0
  1  2  1  0
  1  5  1  0
  2  3  1  0
  3  4  1  0
  4  5  1  0
  1  6  1  0
  1  7  1  0
  2  8  1  0
  2  9  1  0
  3 10  1  0
  3 11  1  0
  4 12  1  0
  4 13  1  0
  5 14  1  0
M  END
$$$$
