CC(OCCC(C)C)=O
     RDKit          3D

 23 22  0  0  0  0  0  0  0  0999 V2000
    4.2834   -0.1760   -0.7134 C   0  0  0  0  0  0  0  0  0  0  0  0
    3.0110    0.5635   -0.4734 C   0  0  0  0  0  0  0  0  0  0  0  0
    1.8263   -0.1546   -0.2906 O   0  0  0  0  0  0  0  0  0  0  0  0
    0.5725    0.4789   -0.0570 C   0  0  0  0  0  0  0  0  0  0  0  0
   -0.5131   -0.5884    0.1029 C   0  0  0  0  0  0  0  0  0  0  0  0
   -1.8759   -0.0003    0.5327 C   0  0  0  0  0  0  0  0  0  0  0  0
   -2.8378   -1.1318    0.9176 C   0  0  0  0  0  0  0  0  0  0  0  0
   -2.5024    0.8625   -0.5733 C   0  0  0  0  0  0  0  0  0  0  0  0
    3.0128    1.8244   -0.4375 O   0  0  0  0  0  0  0  0  0  0  0  0
    4.4926   -0.8415    0.1498 H   0  0  0  0  0  0  0  0  0  0  0  0
    4.1864   -0.7901   -1.6327 H   0  0  0  0  0  0  0  0  0  0  0  0
    5.1308    0.5313   -0.8386 H   0  0  0  0  0  0  0  0  0  0  0  0
    0.6371    1.0919    0.8686 H   0  0  0  0  0  0  0  0  0  0  0  0
    0.3350    1.1385   -0.9185 H   0  0  0  0  0  0  0  0  0  0  0  0
   -0.6225   -1.1484   -0.8520 H   0  0  0  0  0  0  0  0  0  0  0  0
   -0.1692   -1.3087    0.8780 H   0  0  0  0  0  0  0  0  0  0  0  0
   -1.7277    0.6362    1.4333 H   0  0  0  0  0  0  0  0  0  0  0  0
   -3.8084   -0.7129    1.2595 H   0  0  0  0  0  0  0  0  0  0  0  0
   -2.4129   -1.7314    1.7508 H   0  0  0  0  0  0  0  0  0  0  0  0
   -3.0213   -1.8019    0.0501 H   0  0  0  0  0  0  0  0  0  0  0  0
   -1.8873    1.7663   -0.7612 H   0  0  0  0  0  0  0  0  0  0  0  0
   -3.5120    1.2089   -0.2649 H   0  0  0  0  0  0  0  0  0  0  0  0
   -2.5974    0.2837   -1.5171 H   0  0  0  0  0  0  0  0  0  0  0  0
  1  2  1  0
  2  9  2  0
  2  3  1  0
  3  4  1  0
  4  5  1  0
  5  6  1  0
  6  8  1  0
  6  7  1  0
  1 10  1  0
  1 11  1  0
  1 12  1  0
  4 13  1  0
  4 14  1  0
  5 15  1  0
  5 16  1  0
  6 17  1  0
  7 18  1  0
  7 19  1  0
  7 20  1  0
  8 21  1  0
  8 22  1  0
  8 23  1  0
M  END
$$$$
