O=C(O)CCCCCCCC(O)=O
     RDKit          3D

 29 28  0  0  0  0  0  0  0  0999 V2000
    4.7227   -0.7073   -1.2947 O   0  0  0  0  0  0  0  0  0  0  0  0
    4.2213   -0.1736   -0.2692 C   0  0  0  0  0  0  0  0  0  0  0  0
    4.6614    1.0782    0.1492 O   0  0  0  0  0  0  0  0  0  0  0  0
    3.1308   -0.8724    0.4834 C   0  0  0  0  0  0  0  0  0  0  0  0
    1.7783   -0.7572   -0.2325 C   0  0  0  0  0  0  0  0  0  0  0  0
    1.2164    0.6741   -0.1853 C   0  0  0  0  0  0  0  0  0  0  0  0
   -0.0696    0.8415   -1.0151 C   0  0  0  0  0  0  0  0  0  0  0  0
   -1.2605   -0.0189   -0.5550 C   0  0  0  0  0  0  0  0  0  0  0  0
   -1.7161    0.3051    0.8782 C   0  0  0  0  0  0  0  0  0  0  0  0
   -2.9961   -0.4508    1.2615 C   0  0  0  0  0  0  0  0  0  0  0  0
   -4.1906    0.0431    0.5029 C   0  0  0  0  0  0  0  0  0  0  0  0
   -4.8666   -0.8140   -0.3597 O   0  0  0  0  0  0  0  0  0  0  0  0
   -4.5885    1.2297    0.6508 O   0  0  0  0  0  0  0  0  0  0  0  0
    5.3896    1.5685   -0.3564 H   0  0  0  0  0  0  0  0  0  0  0  0
    3.3974   -1.9471    0.5796 H   0  0  0  0  0  0  0  0  0  0  0  0
    3.0543   -0.4547    1.5108 H   0  0  0  0  0  0  0  0  0  0  0  0
    1.0704   -1.4442    0.2775 H   0  0  0  0  0  0  0  0  0  0  0  0
    1.8824   -1.0931   -1.2878 H   0  0  0  0  0  0  0  0  0  0  0  0
    1.0394    0.9796    0.8674 H   0  0  0  0  0  0  0  0  0  0  0  0
    1.9710    1.3751   -0.6024 H   0  0  0  0  0  0  0  0  0  0  0  0
   -0.3701    1.9117   -0.9884 H   0  0  0  0  0  0  0  0  0  0  0  0
    0.1545    0.5959   -2.0762 H   0  0  0  0  0  0  0  0  0  0  0  0
   -2.0999    0.1767   -1.2568 H   0  0  0  0  0  0  0  0  0  0  0  0
   -1.0137   -1.0980   -0.6413 H   0  0  0  0  0  0  0  0  0  0  0  0
   -1.8769    1.3999    0.9912 H   0  0  0  0  0  0  0  0  0  0  0  0
   -0.9212    0.0011    1.5916 H   0  0  0  0  0  0  0  0  0  0  0  0
   -3.1871   -0.3147    2.3477 H   0  0  0  0  0  0  0  0  0  0  0  0
   -2.8565   -1.5385    1.0788 H   0  0  0  0  0  0  0  0  0  0  0  0
   -5.6763   -0.4959   -0.8788 H   0  0  0  0  0  0  0  0  0  0  0  0
  1  2  2  0
  2  4  1  0
  2  3  1  0
  4  5  1  0
  5  6  1  0
  6  7  1  0
  7  8  1  0
  8  9  1  0
  9 10  1  0
 10 11  1  0
 11 12  1  0
 11 13  2  0
  3 14  1  0
  4 15  1  0
  4 16  1  0
  5 17  1  0
  5 18  1  0
  6 19  1  0
  6 20  1  0
  7 21  1  0
  7 22  1  0
  8 23  1  0
  8 24  1  0
  9 25  1  0
  9 26  1  0
 10 27  1  0
 10 28  1  0
 12 29  1  0
M  END
$$$$
