O=Cc1ccc(OC)cc1
     RDKit          3D

 18 18  0  0  0  0  0  0  0  0999 V2000
    4.1524    0.2610   -0.7399 O   0  0  0  0  0  0  0  0  0  0  0  0
    3.3234    0.4153    0.1961 C   0  0  0  0  0  0  0  0  0  0  0  0
    1.8809    0.2005   -0.0210 C   0  0  0  0  0  0  0  0  0  0  0  0
    0.9850    0.3810    1.0431 C   0  0  0  0  0  0  0  0  0  0  0  0
   -0.3864    0.1818    0.8561 C   0  0  0  0  0  0  0  0  0  0  0  0
   -0.8827   -0.2025   -0.4041 C   0  0  0  0  0  0  0  0  0  0  0  0
   -2.2487   -0.4145   -0.6425 O   0  0  0  0  0  0  0  0  0  0  0  0
   -3.2683   -0.2687    0.3407 C   0  0  0  0  0  0  0  0  0  0  0  0
    0.0132   -0.3819   -1.4641 C   0  0  0  0  0  0  0  0  0  0  0  0
    1.3845   -0.1831   -1.2781 C   0  0  0  0  0  0  0  0  0  0  0  0
    3.6855    0.7106    1.1727 H   0  0  0  0  0  0  0  0  0  0  0  0
    1.3468    0.6765    2.0205 H   0  0  0  0  0  0  0  0  0  0  0  0
   -1.0508    0.3292    1.6965 H   0  0  0  0  0  0  0  0  0  0  0  0
   -3.2868    0.7750    0.7197 H   0  0  0  0  0  0  0  0  0  0  0  0
   -4.2513   -0.4969   -0.1197 H   0  0  0  0  0  0  0  0  0  0  0  0
   -3.0950   -0.9768    1.1784 H   0  0  0  0  0  0  0  0  0  0  0  0
   -0.3559   -0.6774   -2.4381 H   0  0  0  0  0  0  0  0  0  0  0  0
    2.0541   -0.3293   -2.1165 H   0  0  0  0  0  0  0  0  0  0  0  0
  1  2  2  0
  2  3  1  0
  3 10  2  0
  3  4  1  0
  4  5  2  0
  5  6  1  0
  6  9  2  0
  6  7  1  0
  7  8  1  0
  9 10  1  0
  2 11  1  0
  4 12  1  0
  5 13  1  0
  8 14  1  0
  8 15  1  0
  8 16  1  0
  9 17  1  0
 10 18  1  0
M  END
$$$$
