O=C(CCC(OCC)=O)OCC
     RDKit          3D

 26 25  0  0  0  0  0  0  0  0999 V2000
   -2.2634    1.4253   -1.1174 O   0  0  0  0  0  0  0  0  0  0  0  0
   -1.8064    0.9868   -0.0266 C   0  0  0  0  0  0  0  0  0  0  0  0
   -0.3290    0.9623    0.2029 C   0  0  0  0  0  0  0  0  0  0  0  0
    0.2545   -0.3834   -0.2323 C   0  0  0  0  0  0  0  0  0  0  0  0
    1.7307   -0.4234    0.0120 C   0  0  0  0  0  0  0  0  0  0  0  0
    2.5661    0.4688   -0.6704 O   0  0  0  0  0  0  0  0  0  0  0  0
    3.9858    0.4748   -0.5355 C   0  0  0  0  0  0  0  0  0  0  0  0
    4.6049   -0.6832   -1.3096 C   0  0  0  0  0  0  0  0  0  0  0  0
    2.2084   -1.2589    0.8274 O   0  0  0  0  0  0  0  0  0  0  0  0
   -2.6630    0.4843    0.9595 O   0  0  0  0  0  0  0  0  0  0  0  0
   -4.0755    0.3806    0.7932 C   0  0  0  0  0  0  0  0  0  0  0  0
   -4.4252   -0.8003   -0.1050 C   0  0  0  0  0  0  0  0  0  0  0  0
   -0.1279    1.1277    1.2838 H   0  0  0  0  0  0  0  0  0  0  0  0
    0.1478    1.7880   -0.3698 H   0  0  0  0  0  0  0  0  0  0  0  0
   -0.2417   -1.2039    0.3325 H   0  0  0  0  0  0  0  0  0  0  0  0
    0.0682   -0.5440   -1.3163 H   0  0  0  0  0  0  0  0  0  0  0  0
    4.2736    0.4208    0.5370 H   0  0  0  0  0  0  0  0  0  0  0  0
    4.3758    1.4286   -0.9490 H   0  0  0  0  0  0  0  0  0  0  0  0
    4.3085   -0.6258   -2.3783 H   0  0  0  0  0  0  0  0  0  0  0  0
    4.2683   -1.6540   -0.8899 H   0  0  0  0  0  0  0  0  0  0  0  0
    5.7117   -0.6294   -1.2396 H   0  0  0  0  0  0  0  0  0  0  0  0
   -4.5378    0.2195    1.7897 H   0  0  0  0  0  0  0  0  0  0  0  0
   -4.4867    1.3230    0.3704 H   0  0  0  0  0  0  0  0  0  0  0  0
   -4.0059   -1.7366    0.3203 H   0  0  0  0  0  0  0  0  0  0  0  0
   -4.0133   -0.6474   -1.1243 H   0  0  0  0  0  0  0  0  0  0  0  0
   -5.5286   -0.9002   -0.1777 H   0  0  0  0  0  0  0  0  0  0  0  0
  1  2  2  0
  2  3  1  0
  2 10  1  0
  3  4  1  0
  4  5  1  0
  5  9  2  0
  5  6  1  0
  6  7  1  0
  7  8  1  0
 10 11  1  0
 11 12  1  0
  3 13  1  0
  3 14  1  0
  4 15  1  0
  4 16  1  0
  7 17  1  0
  7 18  1  0
  8 19  1  0
  8 20  1  0
  8 21  1  0
 11 22  1  0
 11 23  1  0
 12 24  1  0
 12 25  1  0
 12 26  1  0
M  END
$$$$
