CC1(C)C(C(O)=O)CCC1(C)C(O)=O
     RDKit          3D

 30 30  0  0  1  0  0  0  0  0999 V2000
    0.7032   -0.9968   -1.4136 C   0  0  0  0  0  0  0  0  0  0  0  0
    0.3434   -0.5249    0.0319 C   0  0  0  0  0  0  0  0  0  0  0  0
    0.6686   -1.7062    0.9886 C   0  0  0  0  0  0  0  0  0  0  0  0
    1.1491    0.7514    0.3891 C   0  0  1  0  0  0  0  0  0  0  0  0
    2.6237    0.6985    0.0520 C   0  0  0  0  0  0  0  0  0  0  0  0
    3.4347   -0.2379    0.6857 O   0  0  0  0  0  0  0  0  0  0  0  0
    3.1338    1.4987   -0.7782 O   0  0  0  0  0  0  0  0  0  0  0  0
    0.3813    1.9081   -0.2736 C   0  0  0  0  0  0  0  0  0  0  0  0
   -1.0508    1.4119   -0.5101 C   0  0  0  0  0  0  0  0  0  0  0  0
   -1.1499    0.0000    0.1159 C   0  0  1  0  0  0  0  0  0  0  0  0
   -2.1449   -0.8904   -0.6742 C   0  0  0  0  0  0  0  0  0  0  0  0
   -1.7052    0.1692    1.5420 C   0  0  0  0  0  0  0  0  0  0  0  0
   -2.9786    0.7005    1.7528 O   0  0  0  0  0  0  0  0  0  0  0  0
   -1.0282   -0.1326    2.5576 O   0  0  0  0  0  0  0  0  0  0  0  0
    0.4665   -0.2243   -2.1743 H   0  0  0  0  0  0  0  0  0  0  0  0
    1.7839   -1.2350   -1.5050 H   0  0  0  0  0  0  0  0  0  0  0  0
    0.1600   -1.9305   -1.6718 H   0  0  0  0  0  0  0  0  0  0  0  0
   -0.1758   -2.4252    1.0263 H   0  0  0  0  0  0  0  0  0  0  0  0
    0.9088   -1.3711    2.0173 H   0  0  0  0  0  0  0  0  0  0  0  0
    1.5673   -2.2634    0.6467 H   0  0  0  0  0  0  0  0  0  0  0  0
    1.0916    0.9180    1.4878 H   0  0  0  0  0  0  0  0  0  0  0  0
    4.4252   -0.2918    0.4804 H   0  0  0  0  0  0  0  0  0  0  0  0
    0.3836    2.8018    0.3884 H   0  0  0  0  0  0  0  0  0  0  0  0
    0.8254    2.1953   -1.2517 H   0  0  0  0  0  0  0  0  0  0  0  0
   -1.7830    2.1347   -0.0889 H   0  0  0  0  0  0  0  0  0  0  0  0
   -1.2407    1.3718   -1.6058 H   0  0  0  0  0  0  0  0  0  0  0  0
   -1.9117   -0.9154   -1.7585 H   0  0  0  0  0  0  0  0  0  0  0  0
   -2.1311   -1.9289   -0.2822 H   0  0  0  0  0  0  0  0  0  0  0  0
   -3.1834   -0.5095   -0.6001 H   0  0  0  0  0  0  0  0  0  0  0  0
   -3.5669    1.0238    0.9955 H   0  0  0  0  0  0  0  0  0  0  0  0
  1  2  1  0
  2  3  1  0
  2  4  1  0
  2 10  1  0
  4  8  1  0
  4  5  1  0
  5  6  1  0
  5  7  2  0
  8  9  1  0
  9 10  1  0
 10 11  1  6
 10 12  1  0
 12 13  1  0
 12 14  2  0
  1 15  1  0
  1 16  1  0
  1 17  1  0
  3 18  1  0
  3 19  1  0
  3 20  1  0
  4 21  1  1
  6 22  1  0
  8 23  1  0
  8 24  1  0
  9 25  1  0
  9 26  1  0
 11 27  1  0
 11 28  1  0
 11 29  1  0
 13 30  1  0
M  END
$$$$
