CCCCCCCCC=O
     RDKit          3D

 28 27  0  0  0  0  0  0  0  0999 V2000
   -2.9055   -0.6846   -1.0258 C   0  0  0  0  0  0  0  0  0  0  0  0
   -3.2685    0.2130    0.1551 C   0  0  0  0  0  0  0  0  0  0  0  0
   -2.3633   -0.0049    1.3793 C   0  0  0  0  0  0  0  0  0  0  0  0
   -0.8977    0.4195    1.1469 C   0  0  0  0  0  0  0  0  0  0  0  0
    0.0174   -0.7855    0.8661 C   0  0  0  0  0  0  0  0  0  0  0  0
    1.4812   -0.3758    0.6384 C   0  0  0  0  0  0  0  0  0  0  0  0
    1.7091    0.2455   -0.7509 C   0  0  0  0  0  0  0  0  0  0  0  0
    3.1850    0.5848   -0.9946 C   0  0  0  0  0  0  0  0  0  0  0  0
    4.0193   -0.6538   -1.1424 C   0  0  0  0  0  0  0  0  0  0  0  0
    4.9438   -0.8721   -0.3760 O   0  0  0  0  0  0  0  0  0  0  0  0
   -3.6820   -0.5896   -1.8138 H   0  0  0  0  0  0  0  0  0  0  0  0
   -2.8539   -1.7472   -0.7064 H   0  0  0  0  0  0  0  0  0  0  0  0
   -1.9332   -0.3764   -1.4635 H   0  0  0  0  0  0  0  0  0  0  0  0
   -4.3169   -0.0074    0.4520 H   0  0  0  0  0  0  0  0  0  0  0  0
   -3.2283    1.2776   -0.1627 H   0  0  0  0  0  0  0  0  0  0  0  0
   -2.4298   -1.0630    1.7158 H   0  0  0  0  0  0  0  0  0  0  0  0
   -2.7754    0.6134    2.2067 H   0  0  0  0  0  0  0  0  0  0  0  0
   -0.8399    1.1593    0.3214 H   0  0  0  0  0  0  0  0  0  0  0  0
   -0.5279    0.9275    2.0648 H   0  0  0  0  0  0  0  0  0  0  0  0
   -0.0157   -1.4632    1.7474 H   0  0  0  0  0  0  0  0  0  0  0  0
   -0.3480   -1.3652   -0.0069 H   0  0  0  0  0  0  0  0  0  0  0  0
    1.8039    0.3346    1.4309 H   0  0  0  0  0  0  0  0  0  0  0  0
    2.1075   -1.2894    0.7322 H   0  0  0  0  0  0  0  0  0  0  0  0
    1.1271    1.1868   -0.8362 H   0  0  0  0  0  0  0  0  0  0  0  0
    1.3502   -0.4482   -1.5432 H   0  0  0  0  0  0  0  0  0  0  0  0
    3.2687    1.1725   -1.9335 H   0  0  0  0  0  0  0  0  0  0  0  0
    3.5699    1.2173   -0.1643 H   0  0  0  0  0  0  0  0  0  0  0  0
    3.8030   -1.3610   -1.9367 H   0  0  0  0  0  0  0  0  0  0  0  0
  1  2  1  0
  2  3  1  0
  3  4  1  0
  4  5  1  0
  5  6  1  0
  6  7  1  0
  7  8  1  0
  8  9  1  0
  9 10  2  0
  1 11  1  0
  1 12  1  0
  1 13  1  0
  2 14  1  0
  2 15  1  0
  3 16  1  0
  3 17  1  0
  4 18  1  0
  4 19  1  0
  5 20  1  0
  5 21  1  0
  6 22  1  0
  6 23  1  0
  7 24  1  0
  7 25  1  0
  8 26  1  0
  8 27  1  0
  9 28  1  0
M  END
$$$$
