OC(CCCCC(O)=O)=O
     RDKit          3D

 20 19  0  0  0  0  0  0  0  0999 V2000
   -3.3433   -1.0156    0.6810 O   0  0  0  0  0  0  0  0  0  0  0  0
   -2.9651    0.0604   -0.1168 C   0  0  0  0  0  0  0  0  0  0  0  0
   -1.6734    0.0287   -0.8762 C   0  0  0  0  0  0  0  0  0  0  0  0
   -0.5101    0.4465    0.0277 C   0  0  0  0  0  0  0  0  0  0  0  0
    0.8211    0.4114   -0.7374 C   0  0  0  0  0  0  0  0  0  0  0  0
    1.9993    0.8769    0.1293 C   0  0  0  0  0  0  0  0  0  0  0  0
    2.2881   -0.0810    1.2493 C   0  0  0  0  0  0  0  0  0  0  0  0
    2.7452   -1.3687    0.9838 O   0  0  0  0  0  0  0  0  0  0  0  0
    2.1274    0.2835    2.4437 O   0  0  0  0  0  0  0  0  0  0  0  0
   -3.6989    1.0824   -0.1671 O   0  0  0  0  0  0  0  0  0  0  0  0
   -2.7618   -1.8418    0.7556 H   0  0  0  0  0  0  0  0  0  0  0  0
   -1.5029   -1.0003   -1.2604 H   0  0  0  0  0  0  0  0  0  0  0  0
   -1.7398    0.7159   -1.7482 H   0  0  0  0  0  0  0  0  0  0  0  0
   -0.4577   -0.2453    0.8970 H   0  0  0  0  0  0  0  0  0  0  0  0
   -0.6909    1.4769    0.4063 H   0  0  0  0  0  0  0  0  0  0  0  0
    0.7502    1.0879   -1.6172 H   0  0  0  0  0  0  0  0  0  0  0  0
    1.0126   -0.6159   -1.1173 H   0  0  0  0  0  0  0  0  0  0  0  0
    2.9073    0.9600   -0.5053 H   0  0  0  0  0  0  0  0  0  0  0  0
    1.7832    1.8888    0.5374 H   0  0  0  0  0  0  0  0  0  0  0  0
    2.9093   -1.6829    0.0350 H   0  0  0  0  0  0  0  0  0  0  0  0
  1  2  1  0
  2  3  1  0
  2 10  2  0
  3  4  1  0
  4  5  1  0
  5  6  1  0
  6  7  1  0
  7  8  1  0
  7  9  2  0
  1 11  1  0
  3 12  1  0
  3 13  1  0
  4 14  1  0
  4 15  1  0
  5 16  1  0
  5 17  1  0
  6 18  1  0
  6 19  1  0
  8 20  1  0
M  END
$$$$
