Clc1c(OC)cc(OC)c2c1OC(C(OC)=CC3=O)(C(C)C3)C2=O
     RDKit          3D

 41 43  0  0  1  0  0  0  0  0999 V2000
    1.8394    2.8241   -2.1771 Cl  0  0  0  0  0  0  0  0  0  0  0  0
    1.8669    1.3687   -1.1941 C   0  0  0  0  0  0  0  0  0  0  0  0
    3.0841    0.7841   -0.7875 C   0  0  0  0  0  0  0  0  0  0  0  0
    4.2850    1.3925   -1.1856 O   0  0  0  0  0  0  0  0  0  0  0  0
    5.5826    0.9128   -0.8490 C   0  0  0  0  0  0  0  0  0  0  0  0
    3.0633   -0.3946    0.0072 C   0  0  0  0  0  0  0  0  0  0  0  0
    1.8363   -0.9843    0.3920 C   0  0  0  0  0  0  0  0  0  0  0  0
    1.7579   -2.1460    1.1739 O   0  0  0  0  0  0  0  0  0  0  0  0
    2.8879   -2.8586    1.6652 C   0  0  0  0  0  0  0  0  0  0  0  0
    0.6631   -0.3657   -0.0375 C   0  0  0  0  0  0  0  0  0  0  0  0
    0.6737    0.7675   -0.8009 C   0  0  0  0  0  0  0  0  0  0  0  0
   -0.6147    1.1950   -1.1041 O   0  0  0  0  0  0  0  0  0  0  0  0
   -1.5910    0.3162   -0.5244 C   0  0  1  0  0  0  0  0  0  0  0  0
   -2.4084    1.0793    0.4994 C   0  0  0  0  0  0  0  0  0  0  0  0
   -1.7558    2.0979    1.2168 O   0  0  0  0  0  0  0  0  0  0  0  0
   -2.3581    2.9040    2.2252 C   0  0  0  0  0  0  0  0  0  0  0  0
   -3.6974    0.7599    0.7302 C   0  0  0  0  0  0  0  0  0  0  0  0
   -4.3785   -0.3066   -0.0240 C   0  0  0  0  0  0  0  0  0  0  0  0
   -5.5785   -0.5831    0.2403 O   0  0  0  0  0  0  0  0  0  0  0  0
   -2.4795   -0.2885   -1.6507 C   0  0  1  0  0  0  0  0  0  0  0  0
   -1.6808   -1.1351   -2.6552 C   0  0  0  0  0  0  0  0  0  0  0  0
   -3.6486   -1.1007   -1.0667 C   0  0  0  0  0  0  0  0  0  0  0  0
   -0.7281   -0.7072    0.1789 C   0  0  0  0  0  0  0  0  0  0  0  0
   -1.1421   -1.6787    0.8662 O   0  0  0  0  0  0  0  0  0  0  0  0
    5.7141    0.9087    0.2537 H   0  0  0  0  0  0  0  0  0  0  0  0
    5.7294   -0.1097   -1.2564 H   0  0  0  0  0  0  0  0  0  0  0  0
    6.3441    1.5851   -1.2945 H   0  0  0  0  0  0  0  0  0  0  0  0
    3.9924   -0.8463    0.3213 H   0  0  0  0  0  0  0  0  0  0  0  0
    3.4925   -2.2048    2.3287 H   0  0  0  0  0  0  0  0  0  0  0  0
    2.5382   -3.7333    2.2508 H   0  0  0  0  0  0  0  0  0  0  0  0
    3.5076   -3.2220    0.8184 H   0  0  0  0  0  0  0  0  0  0  0  0
   -2.7029    2.2679    3.0675 H   0  0  0  0  0  0  0  0  0  0  0  0
   -1.6067    3.6238    2.6095 H   0  0  0  0  0  0  0  0  0  0  0  0
   -3.2107    3.4743    1.7999 H   0  0  0  0  0  0  0  0  0  0  0  0
   -4.2739    1.2920    1.4744 H   0  0  0  0  0  0  0  0  0  0  0  0
   -2.9169    0.5626   -2.2211 H   0  0  0  0  0  0  0  0  0  0  0  0
   -0.8578   -0.5359   -3.0987 H   0  0  0  0  0  0  0  0  0  0  0  0
   -2.3444   -1.4693   -3.4810 H   0  0  0  0  0  0  0  0  0  0  0  0
   -1.2491   -2.0338   -2.1657 H   0  0  0  0  0  0  0  0  0  0  0  0
   -3.2803   -2.0424   -0.6072 H   0  0  0  0  0  0  0  0  0  0  0  0
   -4.3545   -1.3699   -1.8828 H   0  0  0  0  0  0  0  0  0  0  0  0
  1  2  1  0
  2  3  2  0
  2 11  1  0
  3  6  1  0
  3  4  1  0
  4  5  1  0
  6  7  2  0
  7 10  1  0
  7  8  1  0
  8  9  1  0
 10 11  2  0
 10 23  1  0
 11 12  1  0
 13 12  1  6
 13 20  1  0
 13 14  1  0
 13 23  1  0
 14 17  2  0
 14 15  1  0
 15 16  1  0
 17 18  1  0
 18 22  1  0
 18 19  2  0
 20 21  1  0
 20 22  1  0
 23 24  2  0
  5 25  1  0
  5 26  1  0
  5 27  1  0
  6 28  1  0
  9 29  1  0
  9 30  1  0
  9 31  1  0
 16 32  1  0
 16 33  1  0
 16 34  1  0
 17 35  1  0
 20 36  1  6
 21 37  1  0
 21 38  1  0
 21 39  1  0
 22 40  1  0
 22 41  1  0
M  END
$$$$
