
     RDKit          3D

 53 56  0  0  1  0  0  0  0  0999 V2000
    3.3450    0.7719    2.5136 O   0  0  0  0  0  0  0  0  0  0  0  0
    2.9970    0.5653    1.3205 C   0  0  0  0  0  0  0  0  0  0  0  0
    4.0307    0.3949    0.2552 C   0  0  0  0  0  0  0  0  0  0  0  0
    5.3838    0.7908    0.4365 C   0  0  0  0  0  0  0  0  0  0  0  0
    5.8109    1.5761    1.5102 O   0  0  0  0  0  0  0  0  0  0  0  0
    6.3474    0.4200   -0.5040 C   0  0  0  0  0  0  0  0  0  0  0  0
    5.9918   -0.2887   -1.6461 C   0  0  0  0  0  0  0  0  0  0  0  0
    4.6582   -0.6156   -1.8873 C   0  0  0  0  0  0  0  0  0  0  0  0
    4.2837   -1.5120   -3.3571 Cl  0  0  0  0  0  0  0  0  0  0  0  0
    3.6593   -0.2496   -0.9580 C   0  0  0  0  0  0  0  0  0  0  0  0
    2.1984   -0.5835   -1.2361 C   0  0  1  0  0  0  0  0  0  0  0  0
    1.9227   -1.9240   -0.9107 O   0  0  0  0  0  0  0  0  0  0  0  0
    1.2489    0.3951   -0.5033 C   0  0  2  0  0  0  0  0  0  0  0  0
    1.5582    0.3856    0.9794 C   0  0  0  0  0  0  0  0  0  0  0  0
    0.6135    0.1493    1.9240 C   0  0  0  0  0  0  0  0  0  0  0  0
    0.9744    0.1864    3.2743 O   0  0  0  0  0  0  0  0  0  0  0  0
   -0.8464   -0.1220    1.5664 C   0  0  2  0  0  0  0  0  0  0  0  0
   -1.6623    1.1577    1.5973 C   0  0  0  0  0  0  0  0  0  0  0  0
   -3.0186    1.1675    1.0040 C   0  0  0  0  0  0  0  0  0  0  0  0
   -3.9494    2.2734    1.3398 C   0  0  0  0  0  0  0  0  0  0  0  0
   -3.9865    2.8244    2.6576 N   0  0  0  0  0  0  0  0  0  0  0  0
   -4.7204    2.7388    0.4576 O   0  0  0  0  0  0  0  0  0  0  0  0
   -3.4162    0.1553    0.2005 C   0  0  0  0  0  0  0  0  0  0  0  0
   -4.7643    0.0835   -0.1583 O   0  0  0  0  0  0  0  0  0  0  0  0
   -2.4666   -0.9789   -0.2197 C   0  0  1  0  0  0  0  0  0  0  0  0
   -2.5621   -1.3767   -1.6565 N   0  0  0  0  0  0  0  0  0  0  0  0
   -3.0315   -0.3448   -2.6008 C   0  0  0  0  0  0  0  0  0  0  0  0
   -3.2525   -2.6582   -1.8671 C   0  0  0  0  0  0  0  0  0  0  0  0
   -1.1902    2.2072    2.1160 O   0  0  0  0  0  0  0  0  0  0  0  0
   -1.3757   -1.0674    2.4730 O   0  0  0  0  0  0  0  0  0  0  0  0
   -0.9680   -0.7247    0.1497 C   0  0  1  0  0  0  0  0  0  0  0  0
   -0.2345    0.1699   -0.8699 C   0  0  0  0  0  0  0  0  0  0  0  0
    5.1878    2.1219    2.0887 H   0  0  0  0  0  0  0  0  0  0  0  0
    7.3827    0.7001   -0.3541 H   0  0  0  0  0  0  0  0  0  0  0  0
    6.7579   -0.5679   -2.3588 H   0  0  0  0  0  0  0  0  0  0  0  0
    2.0110   -0.4519   -2.3234 H   0  0  0  0  0  0  0  0  0  0  0  0
    2.1734   -2.0653    0.0394 H   0  0  0  0  0  0  0  0  0  0  0  0
    1.5042    1.4150   -0.8722 H   0  0  0  0  0  0  0  0  0  0  0  0
    0.3049    0.0809    4.0252 H   0  0  0  0  0  0  0  0  0  0  0  0
   -4.6069    3.6379    2.8678 H   0  0  0  0  0  0  0  0  0  0  0  0
   -3.4420    2.3959    3.4383 H   0  0  0  0  0  0  0  0  0  0  0  0
   -5.1626   -0.7302   -0.6061 H   0  0  0  0  0  0  0  0  0  0  0  0
   -2.7787   -1.8376    0.4184 H   0  0  0  0  0  0  0  0  0  0  0  0
   -2.6594   -0.5855   -3.6190 H   0  0  0  0  0  0  0  0  0  0  0  0
   -2.6347    0.6571   -2.3356 H   0  0  0  0  0  0  0  0  0  0  0  0
   -4.1399   -0.2990   -2.6418 H   0  0  0  0  0  0  0  0  0  0  0  0
   -2.7452   -3.4618   -1.2918 H   0  0  0  0  0  0  0  0  0  0  0  0
   -4.3146   -2.6017   -1.5522 H   0  0  0  0  0  0  0  0  0  0  0  0
   -3.2093   -2.9471   -2.9395 H   0  0  0  0  0  0  0  0  0  0  0  0
   -1.7088   -0.5961    3.2813 H   0  0  0  0  0  0  0  0  0  0  0  0
   -0.4615   -1.7164    0.1477 H   0  0  0  0  0  0  0  0  0  0  0  0
   -0.2958   -0.2734   -1.8864 H   0  0  0  0  0  0  0  0  0  0  0  0
   -0.7410    1.1581   -0.9267 H   0  0  0  0  0  0  0  0  0  0  0  0
  1  2  2  0
  2 14  1  0
  2  3  1  0
  3 10  2  0
  3  4  1  0
  4  6  2  0
  4  5  1  0
  6  7  1  0
  7  8  2  0
  8 10  1  0
  8  9  1  0
 10 11  1  0
 11 13  1  0
 11 12  1  0
 13 32  1  0
 13 14  1  0
 14 15  2  0
 15 17  1  0
 15 16  1  0
 17 31  1  0
 17 18  1  0
 17 30  1  1
 18 19  1  0
 18 29  2  0
 19 23  2  0
 19 20  1  0
 20 21  1  0
 20 22  2  0
 23 25  1  0
 23 24  1  0
 25 31  1  0
 25 26  1  0
 26 27  1  0
 26 28  1  0
 31 32  1  0
  5 33  1  0
  6 34  1  0
  7 35  1  0
 11 36  1  6
 12 37  1  0
 13 38  1  6
 16 39  1  0
 21 40  1  0
 21 41  1  0
 24 42  1  0
 25 43  1  1
 27 44  1  0
 27 45  1  0
 27 46  1  0
 28 47  1  0
 28 48  1  0
 28 49  1  0
 30 50  1  0
 31 51  1  1
 32 52  1  0
 32 53  1  0
M  END
$$$$
