COc1c(C(C4c(ccc(OC)c5OC)c5C(O4)=O)N(C)CC3)c3cc2c1OCO2
     RDKit          3D

 53 57  0  0  1  0  0  0  0  0999 V2000
   -1.2938    3.3395    0.8829 C   0  0  0  0  0  0  0  0  0  0  0  0
   -1.2916    2.0141    0.3692 O   0  0  0  0  0  0  0  0  0  0  0  0
   -2.3644    1.3943   -0.2946 C   0  0  0  0  0  0  0  0  0  0  0  0
   -2.2534    0.0393   -0.7502 C   0  0  0  0  0  0  0  0  0  0  0  0
   -0.9542   -0.7884   -0.5690 C   0  0  1  0  0  0  0  0  0  0  0  0
   -0.3009   -0.6493    0.8509 C   0  0  2  0  0  0  0  0  0  0  0  0
    1.1539   -0.2231    0.7549 C   0  0  0  0  0  0  0  0  0  0  0  0
    1.6882    0.9265    0.1720 C   0  0  0  0  0  0  0  0  0  0  0  0
    3.0771    1.0960    0.1589 C   0  0  0  0  0  0  0  0  0  0  0  0
    3.9411    0.1176    0.7216 C   0  0  0  0  0  0  0  0  0  0  0  0
    5.3341    0.2823    0.6811 O   0  0  0  0  0  0  0  0  0  0  0  0
    6.0021    1.3946    0.0915 C   0  0  0  0  0  0  0  0  0  0  0  0
    3.3786   -1.0467    1.3208 C   0  0  0  0  0  0  0  0  0  0  0  0
    4.1305   -2.0802    1.9044 O   0  0  0  0  0  0  0  0  0  0  0  0
    5.5494   -2.1450    1.9682 C   0  0  0  0  0  0  0  0  0  0  0  0
    1.9827   -1.1708    1.3105 C   0  0  0  0  0  0  0  0  0  0  0  0
    1.1243   -2.2300    1.7963 C   0  0  0  0  0  0  0  0  0  0  0  0
   -0.2061   -1.9160    1.5310 O   0  0  0  0  0  0  0  0  0  0  0  0
    1.4955   -3.2960    2.3838 O   0  0  0  0  0  0  0  0  0  0  0  0
   -1.0982   -2.2489   -0.8708 N   0  0  0  0  0  0  0  0  0  0  0  0
   -0.1281   -2.7342   -1.8547 C   0  0  0  0  0  0  0  0  0  0  0  0
   -2.4642   -2.7467   -1.1231 C   0  0  0  0  0  0  0  0  0  0  0  0
   -3.1941   -1.8655   -2.1234 C   0  0  0  0  0  0  0  0  0  0  0  0
   -3.3128   -0.4931   -1.5483 C   0  0  0  0  0  0  0  0  0  0  0  0
   -4.4833    0.2529   -1.8040 C   0  0  0  0  0  0  0  0  0  0  0  0
   -4.5685    1.5292   -1.2787 C   0  0  0  0  0  0  0  0  0  0  0  0
   -3.5684    2.0773   -0.5521 C   0  0  0  0  0  0  0  0  0  0  0  0
   -3.9513    3.3518   -0.1674 O   0  0  0  0  0  0  0  0  0  0  0  0
   -5.2577    3.6149   -0.6791 C   0  0  0  0  0  0  0  0  0  0  0  0
   -5.6179    2.4241   -1.3913 O   0  0  0  0  0  0  0  0  0  0  0  0
   -1.3990    4.0784    0.0588 H   0  0  0  0  0  0  0  0  0  0  0  0
   -0.3337    3.5159    1.4042 H   0  0  0  0  0  0  0  0  0  0  0  0
   -2.1174    3.4629    1.6149 H   0  0  0  0  0  0  0  0  0  0  0  0
   -0.2660   -0.3295   -1.3209 H   0  0  0  0  0  0  0  0  0  0  0  0
   -0.8607    0.0342    1.5213 H   0  0  0  0  0  0  0  0  0  0  0  0
    1.0579    1.6722   -0.2943 H   0  0  0  0  0  0  0  0  0  0  0  0
    3.4694    1.9896   -0.3049 H   0  0  0  0  0  0  0  0  0  0  0  0
    5.7824    1.4338   -0.9959 H   0  0  0  0  0  0  0  0  0  0  0  0
    5.6807    2.3405    0.5846 H   0  0  0  0  0  0  0  0  0  0  0  0
    7.0979    1.2736    0.2229 H   0  0  0  0  0  0  0  0  0  0  0  0
    5.8402   -3.0700    2.5046 H   0  0  0  0  0  0  0  0  0  0  0  0
    5.9728   -2.1853    0.9413 H   0  0  0  0  0  0  0  0  0  0  0  0
    5.9546   -1.2735    2.5276 H   0  0  0  0  0  0  0  0  0  0  0  0
   -0.1786   -3.8436   -1.9509 H   0  0  0  0  0  0  0  0  0  0  0  0
   -0.3242   -2.2716   -2.8410 H   0  0  0  0  0  0  0  0  0  0  0  0
    0.8960   -2.4883   -1.5254 H   0  0  0  0  0  0  0  0  0  0  0  0
   -3.0318   -2.7636   -0.1583 H   0  0  0  0  0  0  0  0  0  0  0  0
   -2.4470   -3.7962   -1.5005 H   0  0  0  0  0  0  0  0  0  0  0  0
   -4.1996   -2.3000   -2.3218 H   0  0  0  0  0  0  0  0  0  0  0  0
   -2.6342   -1.8187   -3.0878 H   0  0  0  0  0  0  0  0  0  0  0  0
   -5.3092   -0.1570   -2.3927 H   0  0  0  0  0  0  0  0  0  0  0  0
   -5.2301    4.4829   -1.3675 H   0  0  0  0  0  0  0  0  0  0  0  0
   -5.9687    3.7929    0.1538 H   0  0  0  0  0  0  0  0  0  0  0  0
  1  2  1  0
  2  3  1  0
  3  4  2  0
  3 27  1  0
  4 24  1  0
  4  5  1  0
  5  6  1  0
  5 20  1  0
  6  7  1  0
  6 18  1  0
  7  8  2  0
  7 16  1  0
  8  9  1  0
  9 10  2  0
 10 13  1  0
 10 11  1  0
 11 12  1  0
 13 16  2  0
 13 14  1  0
 14 15  1  0
 16 17  1  0
 17 19  2  0
 17 18  1  0
 20 21  1  0
 20 22  1  0
 22 23  1  0
 23 24  1  0
 24 25  2  0
 25 26  1  0
 26 27  2  0
 26 30  1  0
 27 28  1  0
 28 29  1  0
 29 30  1  0
  1 31  1  0
  1 32  1  0
  1 33  1  0
  5 34  1  6
  6 35  1  1
  8 36  1  0
  9 37  1  0
 12 38  1  0
 12 39  1  0
 12 40  1  0
 15 41  1  0
 15 42  1  0
 15 43  1  0
 21 44  1  0
 21 45  1  0
 21 46  1  0
 22 47  1  0
 22 48  1  0
 23 49  1  0
 23 50  1  0
 25 51  1  0
 29 52  1  0
 29 53  1  0
M  END
$$$$
