c1(ccc3ccc4)cccc2ccc4c3c12
     RDKit          3D

 26 29  0  0  0  0  0  0  0  0999 V2000
    1.2809   -1.3594    0.0146 C   0  0  0  0  0  0  0  0  0  0  0  0
    0.4530   -2.4919    0.0473 C   0  0  0  0  0  0  0  0  0  0  0  0
   -0.9391   -2.3519    0.0594 C   0  0  0  0  0  0  0  0  0  0  0  0
   -1.5254   -1.0772    0.0391 C   0  0  0  0  0  0  0  0  0  0  0  0
   -2.9201   -0.9261    0.0510 C   0  0  0  0  0  0  0  0  0  0  0  0
   -3.4898    0.3509    0.0304 C   0  0  0  0  0  0  0  0  0  0  0  0
   -2.6777    1.4890   -0.0022 C   0  0  0  0  0  0  0  0  0  0  0  0
    2.6777   -1.4890    0.0022 C   0  0  0  0  0  0  0  0  0  0  0  0
    3.4898   -0.3509   -0.0304 C   0  0  0  0  0  0  0  0  0  0  0  0
    2.9201    0.9261   -0.0510 C   0  0  0  0  0  0  0  0  0  0  0  0
    1.5254    1.0772   -0.0391 C   0  0  0  0  0  0  0  0  0  0  0  0
    0.9391    2.3519   -0.0594 C   0  0  0  0  0  0  0  0  0  0  0  0
   -0.4530    2.4919   -0.0473 C   0  0  0  0  0  0  0  0  0  0  0  0
   -1.2809    1.3594   -0.0146 C   0  0  0  0  0  0  0  0  0  0  0  0
   -0.7017    0.0706    0.0061 C   0  0  0  0  0  0  0  0  0  0  0  0
    0.7017   -0.0706   -0.0061 C   0  0  0  0  0  0  0  0  0  0  0  0
    0.8824   -3.4866    0.0634 H   0  0  0  0  0  0  0  0  0  0  0  0
   -1.5577   -3.2412    0.0847 H   0  0  0  0  0  0  0  0  0  0  0  0
   -3.5687   -1.7937    0.0762 H   0  0  0  0  0  0  0  0  0  0  0  0
   -4.5667    0.4592    0.0398 H   0  0  0  0  0  0  0  0  0  0  0  0
   -3.1409    2.4684   -0.0177 H   0  0  0  0  0  0  0  0  0  0  0  0
    3.1409   -2.4684    0.0177 H   0  0  0  0  0  0  0  0  0  0  0  0
    4.5667   -0.4592   -0.0398 H   0  0  0  0  0  0  0  0  0  0  0  0
    3.5687    1.7937   -0.0762 H   0  0  0  0  0  0  0  0  0  0  0  0
    1.5577    3.2412   -0.0847 H   0  0  0  0  0  0  0  0  0  0  0  0
   -0.8824    3.4866   -0.0634 H   0  0  0  0  0  0  0  0  0  0  0  0
  1 16  1  0
  1  2  2  0
  1  8  1  0
  2  3  1  0
  3  4  2  0
  4  5  1  0
  4 15  1  0
  5  6  2  0
  6  7  1  0
  7 14  2  0
  8  9  2  0
  9 10  1  0
 10 11  2  0
 11 16  1  0
 11 12  1  0
 12 13  2  0
 13 14  1  0
 14 15  1  0
 15 16  2  0
  2 17  1  0
  3 18  1  0
  5 19  1  0
  6 20  1  0
  7 21  1  0
  8 22  1  0
  9 23  1  0
 10 24  1  0
 12 25  1  0
 13 26  1  0
M  END
$$$$
