
     RDKit          3D

 44 46  0  0  1  0  0  0  0  0999 V2000
    1.6907    1.6602   -0.2919 O   0  0  0  0  0  0  0  0  0  0  0  0
    1.1033    0.6017    0.0566 C   0  0  0  0  0  0  0  0  0  0  0  0
    1.8020   -0.6412    0.5338 C   0  0  2  0  0  0  0  0  0  0  0  0
    2.6522   -1.3172   -0.5614 C   0  0  0  0  0  0  0  0  0  0  0  0
    3.9109   -0.5312   -0.9690 C   0  0  0  0  0  0  0  0  0  0  0  0
    4.9170   -0.3736    0.1808 C   0  0  0  0  0  0  0  0  0  0  0  0
    6.2292    0.2271   -0.3153 C   0  0  0  0  0  0  0  0  0  0  0  0
   -0.3163    0.4612    0.0689 N   0  0  0  0  0  0  0  0  0  0  0  0
   -1.2304    1.3118   -0.6448 C   0  0  0  0  0  0  0  0  0  0  0  0
   -1.1851    2.7038   -0.4690 C   0  0  0  0  0  0  0  0  0  0  0  0
   -2.0786    3.5311   -1.1565 C   0  0  0  0  0  0  0  0  0  0  0  0
   -3.0225    2.9774   -2.0272 C   0  0  0  0  0  0  0  0  0  0  0  0
   -3.9063    3.8130   -2.7060 O   0  0  0  0  0  0  0  0  0  0  0  0
   -3.0701    1.5887   -2.2088 C   0  0  0  0  0  0  0  0  0  0  0  0
   -2.1782    0.7602   -1.5223 C   0  0  0  0  0  0  0  0  0  0  0  0
   -0.6225   -0.8208    0.5421 N   0  0  0  0  0  0  0  0  0  0  0  0
   -1.9259   -1.2486    0.9744 C   0  0  0  0  0  0  0  0  0  0  0  0
   -2.3454   -2.5704    0.7527 C   0  0  0  0  0  0  0  0  0  0  0  0
   -3.6170   -2.9841    1.1611 C   0  0  0  0  0  0  0  0  0  0  0  0
   -4.4767   -2.0829    1.7948 C   0  0  0  0  0  0  0  0  0  0  0  0
   -4.0653   -0.7670    2.0229 C   0  0  0  0  0  0  0  0  0  0  0  0
   -2.7949   -0.3496    1.6156 C   0  0  0  0  0  0  0  0  0  0  0  0
    0.6016   -1.4818    0.8559 C   0  0  0  0  0  0  0  0  0  0  0  0
    0.6594   -2.6204    1.3928 O   0  0  0  0  0  0  0  0  0  0  0  0
    2.3782   -0.4447    1.4614 H   0  0  0  0  0  0  0  0  0  0  0  0
    2.0274   -1.4727   -1.4692 H   0  0  0  0  0  0  0  0  0  0  0  0
    2.9661   -2.3237   -0.2067 H   0  0  0  0  0  0  0  0  0  0  0  0
    3.6328    0.4662   -1.3686 H   0  0  0  0  0  0  0  0  0  0  0  0
    4.3992   -1.0887   -1.7986 H   0  0  0  0  0  0  0  0  0  0  0  0
    5.1266   -1.3643    0.6400 H   0  0  0  0  0  0  0  0  0  0  0  0
    4.5003    0.2986    0.9603 H   0  0  0  0  0  0  0  0  0  0  0  0
    6.9277    0.3524    0.5387 H   0  0  0  0  0  0  0  0  0  0  0  0
    6.7018   -0.4435   -1.0642 H   0  0  0  0  0  0  0  0  0  0  0  0
    6.0484    1.2217   -0.7758 H   0  0  0  0  0  0  0  0  0  0  0  0
   -0.4716    3.1460    0.2140 H   0  0  0  0  0  0  0  0  0  0  0  0
   -2.0398    4.6028   -1.0096 H   0  0  0  0  0  0  0  0  0  0  0  0
   -4.6057    3.4419   -3.3387 H   0  0  0  0  0  0  0  0  0  0  0  0
   -3.7953    1.1511   -2.8831 H   0  0  0  0  0  0  0  0  0  0  0  0
   -2.2190   -0.3095   -1.6833 H   0  0  0  0  0  0  0  0  0  0  0  0
   -1.6949   -3.2735    0.2485 H   0  0  0  0  0  0  0  0  0  0  0  0
   -3.9372   -4.0025    0.9830 H   0  0  0  0  0  0  0  0  0  0  0  0
   -5.4607   -2.4040    2.1108 H   0  0  0  0  0  0  0  0  0  0  0  0
   -4.7301   -0.0706    2.5174 H   0  0  0  0  0  0  0  0  0  0  0  0
   -2.4853    0.6694    1.8097 H   0  0  0  0  0  0  0  0  0  0  0  0
  1  2  2  0
  2  3  1  0
  2  8  1  0
  3  4  1  0
  3 23  1  0
  4  5  1  0
  5  6  1  0
  6  7  1  0
  8  9  1  0
  8 16  1  0
  9 15  1  0
  9 10  2  0
 10 11  1  0
 11 12  2  0
 12 14  1  0
 12 13  1  0
 14 15  2  0
 16 17  1  0
 16 23  1  0
 17 22  1  0
 17 18  2  0
 18 19  1  0
 19 20  2  0
 20 21  1  0
 21 22  2  0
 23 24  2  0
  3 25  1  1
  4 26  1  0
  4 27  1  0
  5 28  1  0
  5 29  1  0
  6 30  1  0
  6 31  1  0
  7 32  1  0
  7 33  1  0
  7 34  1  0
 10 35  1  0
 11 36  1  0
 13 37  1  0
 14 38  1  0
 15 39  1  0
 18 40  1  0
 19 41  1  0
 20 42  1  0
 21 43  1  0
 22 44  1  0
M  END
$$$$
