Clc(cccc2)c2c1ccccc1Cl
     RDKit          3D

 22 23  0  0  0  0  0  0  0  0999 V2000
    0.6792   -1.6934    2.1777 Cl  0  0  0  0  0  0  0  0  0  0  0  0
    1.4723   -0.6533    0.9993 C   0  0  0  0  0  0  0  0  0  0  0  0
    2.8662   -0.5265    1.0449 C   0  0  0  0  0  0  0  0  0  0  0  0
    3.5272    0.3147    0.1461 C   0  0  0  0  0  0  0  0  0  0  0  0
    2.7984    1.0381   -0.8004 C   0  0  0  0  0  0  0  0  0  0  0  0
    1.4072    0.9185   -0.8540 C   0  0  0  0  0  0  0  0  0  0  0  0
    0.7343    0.0673    0.0370 C   0  0  0  0  0  0  0  0  0  0  0  0
   -0.7359   -0.0425   -0.0428 C   0  0  0  0  0  0  0  0  0  0  0  0
   -1.5279    1.0302    0.3964 C   0  0  0  0  0  0  0  0  0  0  0  0
   -2.9215    0.9501    0.3336 C   0  0  0  0  0  0  0  0  0  0  0  0
   -3.5344   -0.1978   -0.1735 C   0  0  0  0  0  0  0  0  0  0  0  0
   -2.7551   -1.2665   -0.6240 C   0  0  0  0  0  0  0  0  0  0  0  0
   -1.3578   -1.1959   -0.5651 C   0  0  0  0  0  0  0  0  0  0  0  0
   -0.4163   -2.5499   -1.1814 Cl  0  0  0  0  0  0  0  0  0  0  0  0
    3.4385   -1.0761    1.7814 H   0  0  0  0  0  0  0  0  0  0  0  0
    4.6046    0.4094    0.1865 H   0  0  0  0  0  0  0  0  0  0  0  0
    3.3118    1.6922   -1.4933 H   0  0  0  0  0  0  0  0  0  0  0  0
    0.8537    1.4835   -1.5942 H   0  0  0  0  0  0  0  0  0  0  0  0
   -1.0648    1.9253    0.7939 H   0  0  0  0  0  0  0  0  0  0  0  0
   -3.5268    1.7785    0.6785 H   0  0  0  0  0  0  0  0  0  0  0  0
   -4.6140   -0.2575   -0.2221 H   0  0  0  0  0  0  0  0  0  0  0  0
   -3.2388   -2.1484   -1.0243 H   0  0  0  0  0  0  0  0  0  0  0  0
  1  2  1  0
  2  3  2  0
  2  7  1  0
  3  4  1  0
  4  5  2  0
  5  6  1  0
  6  7  2  0
  7  8  1  0
  8  9  2  0
  8 13  1  0
  9 10  1  0
 10 11  2  0
 11 12  1  0
 12 13  2  0
 13 14  1  0
  3 15  1  0
  4 16  1  0
  5 17  1  0
  6 18  1  0
  9 19  1  0
 10 20  1  0
 11 21  1  0
 12 22  1  0
M  END
$$$$
