c1(cccc3)c3sc2c1cccc2
     RDKit          3D

 21 23  0  0  0  0  0  0  0  0999 V2000
    0.7103    0.0932   -0.0636 C   0  0  0  0  0  0  0  0  0  0  0  0
    1.6601    0.5040   -1.0083 C   0  0  0  0  0  0  0  0  0  0  0  0
    3.0166    0.5199   -0.6431 C   0  0  0  0  0  0  0  0  0  0  0  0
    3.4139    0.1297    0.6497 C   0  0  0  0  0  0  0  0  0  0  0  0
    2.4589   -0.2807    1.5916 C   0  0  0  0  0  0  0  0  0  0  0  0
    1.1186   -0.2904    1.2127 C   0  0  0  0  0  0  0  0  0  0  0  0
   -0.2124   -0.7369    2.1486 S   0  0  0  0  0  0  0  0  0  0  0  0
   -1.3293   -0.4408    0.9192 C   0  0  0  0  0  0  0  0  0  0  0  0
   -0.6812    0.0077   -0.2305 C   0  0  0  0  0  0  0  0  0  0  0  0
   -1.4243    0.3145   -1.3782 C   0  0  0  0  0  0  0  0  0  0  0  0
   -2.8203    0.1613   -1.3430 C   0  0  0  0  0  0  0  0  0  0  0  0
   -3.4608   -0.2927   -0.1746 C   0  0  0  0  0  0  0  0  0  0  0  0
   -2.7122   -0.5984    0.9716 C   0  0  0  0  0  0  0  0  0  0  0  0
    1.3695    0.8064   -2.0052 H   0  0  0  0  0  0  0  0  0  0  0  0
    3.7623    0.8347   -1.3616 H   0  0  0  0  0  0  0  0  0  0  0  0
    4.4620    0.1464    0.9188 H   0  0  0  0  0  0  0  0  0  0  0  0
    2.7576   -0.5819    2.5873 H   0  0  0  0  0  0  0  0  0  0  0  0
   -0.9457    0.6642   -2.2828 H   0  0  0  0  0  0  0  0  0  0  0  0
   -3.4082    0.3941   -2.2214 H   0  0  0  0  0  0  0  0  0  0  0  0
   -4.5370   -0.4065   -0.1602 H   0  0  0  0  0  0  0  0  0  0  0  0
   -3.1985   -0.9479    1.8731 H   0  0  0  0  0  0  0  0  0  0  0  0
  1  6  1  0
  1  9  1  0
  1  2  2  0
  2  3  1  0
  3  4  2  0
  4  5  1  0
  5  6  2  0
  6  7  1  0
  7  8  1  0
  8 13  1  0
  8  9  2  0
  9 10  1  0
 10 11  2  0
 11 12  1  0
 12 13  2  0
  2 14  1  0
  3 15  1  0
  4 16  1  0
  5 17  1  0
 10 18  1  0
 11 19  1  0
 12 20  1  0
 13 21  1  0
M  END
$$$$
