O=C(c(cc1I)c(c(I)c1)O)O
     RDKit          3D

 16 16  0  0  0  0  0  0  0  0999 V2000
    2.1889   -1.4463    1.6070 O   0  0  0  0  0  0  0  0  0  0  0  0
    1.9471   -0.6539    0.6584 C   0  0  0  0  0  0  0  0  0  0  0  0
    0.5478   -0.3435    0.3001 C   0  0  0  0  0  0  0  0  0  0  0  0
   -0.3761   -1.3988    0.2176 C   0  0  0  0  0  0  0  0  0  0  0  0
   -1.6934   -1.1600   -0.1806 C   0  0  0  0  0  0  0  0  0  0  0  0
   -3.0601   -2.7605   -0.3205 I   0  0  0  0  0  0  0  0  0  0  0  0
    0.1180    0.9764    0.0199 C   0  0  0  0  0  0  0  0  0  0  0  0
   -1.2036    1.2010   -0.3986 C   0  0  0  0  0  0  0  0  0  0  0  0
   -1.8804    3.1530   -0.8516 I   0  0  0  0  0  0  0  0  0  0  0  0
   -2.1026    0.1358   -0.4978 C   0  0  0  0  0  0  0  0  0  0  0  0
    0.9628    2.0771    0.1822 O   0  0  0  0  0  0  0  0  0  0  0  0
    3.0100   -0.1290   -0.0731 O   0  0  0  0  0  0  0  0  0  0  0  0
   -0.0670   -2.4134    0.4385 H   0  0  0  0  0  0  0  0  0  0  0  0
   -3.1222    0.3169   -0.8123 H   0  0  0  0  0  0  0  0  0  0  0  0
    1.8753    2.0143    0.6140 H   0  0  0  0  0  0  0  0  0  0  0  0
    2.8556    0.4307   -0.9032 H   0  0  0  0  0  0  0  0  0  0  0  0
  1  2  2  0
  2  3  1  0
  2 12  1  0
  3  4  2  0
  3  7  1  0
  4  5  1  0
  5 10  2  0
  5  6  1  0
  7 11  1  0
  7  8  2  0
  8 10  1  0
  8  9  1  0
  4 13  1  0
 10 14  1  0
 11 15  1  0
 12 16  1  0
M  END
$$$$
