CCCCCCOC(c1ccc(N)cc1)=O
     RDKit          3D

 35 35  0  0  0  0  0  0  0  0999 V2000
   -5.4474    1.8567   -0.3762 C   0  0  0  0  0  0  0  0  0  0  0  0
   -4.5141    0.7068   -0.0079 C   0  0  0  0  0  0  0  0  0  0  0  0
   -3.0432    1.1095   -0.1889 C   0  0  0  0  0  0  0  0  0  0  0  0
   -2.0760   -0.0617    0.0440 C   0  0  0  0  0  0  0  0  0  0  0  0
   -1.9745   -0.4589    1.5255 C   0  0  0  0  0  0  0  0  0  0  0  0
   -0.9357   -1.5600    1.7420 C   0  0  0  0  0  0  0  0  0  0  0  0
    0.3718   -1.0633    1.4537 O   0  0  0  0  0  0  0  0  0  0  0  0
    1.2206   -1.6014    0.4773 C   0  0  0  0  0  0  0  0  0  0  0  0
    2.5431   -0.9836    0.2360 C   0  0  0  0  0  0  0  0  0  0  0  0
    3.4187   -1.5133   -0.7294 C   0  0  0  0  0  0  0  0  0  0  0  0
    4.6662   -0.9234   -0.9542 C   0  0  0  0  0  0  0  0  0  0  0  0
    5.0578    0.2033   -0.2196 C   0  0  0  0  0  0  0  0  0  0  0  0
    6.3340    0.8058   -0.4506 N   0  0  0  0  0  0  0  0  0  0  0  0
    4.1901    0.7357    0.7427 C   0  0  0  0  0  0  0  0  0  0  0  0
    2.9420    0.1477    0.9696 C   0  0  0  0  0  0  0  0  0  0  0  0
    0.8601   -2.6049   -0.1977 O   0  0  0  0  0  0  0  0  0  0  0  0
   -6.5018    1.5422   -0.2272 H   0  0  0  0  0  0  0  0  0  0  0  0
   -5.3094    2.1407   -1.4413 H   0  0  0  0  0  0  0  0  0  0  0  0
   -5.2452    2.7389    0.2681 H   0  0  0  0  0  0  0  0  0  0  0  0
   -4.7488   -0.1662   -0.6551 H   0  0  0  0  0  0  0  0  0  0  0  0
   -4.7061    0.4258    1.0489 H   0  0  0  0  0  0  0  0  0  0  0  0
   -2.8969    1.4720   -1.2302 H   0  0  0  0  0  0  0  0  0  0  0  0
   -2.7922    1.9479    0.4974 H   0  0  0  0  0  0  0  0  0  0  0  0
   -1.0717    0.2514   -0.3159 H   0  0  0  0  0  0  0  0  0  0  0  0
   -2.3917   -0.9384   -0.5632 H   0  0  0  0  0  0  0  0  0  0  0  0
   -1.6976    0.4272    2.1375 H   0  0  0  0  0  0  0  0  0  0  0  0
   -2.9561   -0.8361    1.8819 H   0  0  0  0  0  0  0  0  0  0  0  0
   -0.9636   -1.8757    2.8063 H   0  0  0  0  0  0  0  0  0  0  0  0
   -1.1942   -2.4463    1.1226 H   0  0  0  0  0  0  0  0  0  0  0  0
    3.1408   -2.3833   -1.3113 H   0  0  0  0  0  0  0  0  0  0  0  0
    5.3275   -1.3446   -1.7011 H   0  0  0  0  0  0  0  0  0  0  0  0
    6.9876    0.4161   -1.1660 H   0  0  0  0  0  0  0  0  0  0  0  0
    6.6347    1.6460    0.0922 H   0  0  0  0  0  0  0  0  0  0  0  0
    4.4805    1.6066    1.3169 H   0  0  0  0  0  0  0  0  0  0  0  0
    2.2907    0.5805    1.7185 H   0  0  0  0  0  0  0  0  0  0  0  0
  1  2  1  0
  2  3  1  0
  3  4  1  0
  4  5  1  0
  5  6  1  0
  6  7  1  0
  7  8  1  0
  8  9  1  0
  8 16  2  0
  9 15  2  0
  9 10  1  0
 10 11  2  0
 11 12  1  0
 12 14  2  0
 12 13  1  0
 14 15  1  0
  1 17  1  0
  1 18  1  0
  1 19  1  0
  2 20  1  0
  2 21  1  0
  3 22  1  0
  3 23  1  0
  4 24  1  0
  4 25  1  0
  5 26  1  0
  5 27  1  0
  6 28  1  0
  6 29  1  0
 10 30  1  0
 11 31  1  0
 13 32  1  0
 13 33  1  0
 14 34  1  0
 15 35  1  0
M  END
$$$$
