Oc2cc1ccccc1cc2
     RDKit          3D

 19 20  0  0  0  0  0  0  0  0999 V2000
   -3.5919   -0.6150    0.3186 O   0  0  0  0  0  0  0  0  0  0  0  0
   -2.2848   -0.1782    0.1151 C   0  0  0  0  0  0  0  0  0  0  0  0
   -1.1985   -1.0048    0.4351 C   0  0  0  0  0  0  0  0  0  0  0  0
    0.1150   -0.5565    0.2267 C   0  0  0  0  0  0  0  0  0  0  0  0
    1.2103   -1.3753    0.5433 C   0  0  0  0  0  0  0  0  0  0  0  0
    2.5137   -0.9167    0.3309 C   0  0  0  0  0  0  0  0  0  0  0  0
    2.7338    0.3583   -0.1974 C   0  0  0  0  0  0  0  0  0  0  0  0
    1.6521    1.1841   -0.5171 C   0  0  0  0  0  0  0  0  0  0  0  0
    0.3384    0.7361   -0.3088 C   0  0  0  0  0  0  0  0  0  0  0  0
   -0.7561    1.5547   -0.6254 C   0  0  0  0  0  0  0  0  0  0  0  0
   -2.0597    1.0971   -0.4134 C   0  0  0  0  0  0  0  0  0  0  0  0
   -3.7907   -1.5327    0.6996 H   0  0  0  0  0  0  0  0  0  0  0  0
   -1.3808   -1.9917    0.8441 H   0  0  0  0  0  0  0  0  0  0  0  0
    1.0588   -2.3666    0.9536 H   0  0  0  0  0  0  0  0  0  0  0  0
    3.3555   -1.5512    0.5764 H   0  0  0  0  0  0  0  0  0  0  0  0
    3.7454    0.7074   -0.3594 H   0  0  0  0  0  0  0  0  0  0  0  0
    1.8416    2.1695   -0.9257 H   0  0  0  0  0  0  0  0  0  0  0  0
   -0.6039    2.5459   -1.0357 H   0  0  0  0  0  0  0  0  0  0  0  0
   -2.8983    1.7356   -0.6605 H   0  0  0  0  0  0  0  0  0  0  0  0
  1  2  1  0
  2 11  2  0
  2  3  1  0
  3  4  2  0
  4  9  1  0
  4  5  1  0
  5  6  2  0
  6  7  1  0
  7  8  2  0
  8  9  1  0
  9 10  2  0
 10 11  1  0
  1 12  1  0
  3 13  1  0
  5 14  1  0
  6 15  1  0
  7 16  1  0
  8 17  1  0
 10 18  1  0
 11 19  1  0
M  END
$$$$
