Oc1c(ccc(O)c1)CCCCCC
     RDKit          3D

 32 32  0  0  0  0  0  0  0  0999 V2000
   -2.1178   -1.6129   -1.8983 O   0  0  0  0  0  0  0  0  0  0  0  0
   -2.6078   -0.6013   -1.0689 C   0  0  0  0  0  0  0  0  0  0  0  0
   -2.0220   -0.2962    0.1855 C   0  0  0  0  0  0  0  0  0  0  0  0
   -2.5504    0.7628    0.9456 C   0  0  0  0  0  0  0  0  0  0  0  0
   -3.6535    1.4865    0.4885 C   0  0  0  0  0  0  0  0  0  0  0  0
   -4.2410    1.1718   -0.7377 C   0  0  0  0  0  0  0  0  0  0  0  0
   -5.3427    1.9010   -1.1797 O   0  0  0  0  0  0  0  0  0  0  0  0
   -3.7163    0.1305   -1.5125 C   0  0  0  0  0  0  0  0  0  0  0  0
   -0.8180   -1.0402    0.7132 C   0  0  0  0  0  0  0  0  0  0  0  0
    0.4752   -0.4836    0.1053 C   0  0  0  0  0  0  0  0  0  0  0  0
    1.7019   -1.2415    0.6337 C   0  0  0  0  0  0  0  0  0  0  0  0
    3.0080   -0.8007   -0.0456 C   0  0  0  0  0  0  0  0  0  0  0  0
    3.4493    0.6075    0.3792 C   0  0  0  0  0  0  0  0  0  0  0  0
    4.8140    0.9559   -0.2082 C   0  0  0  0  0  0  0  0  0  0  0  0
   -1.3043   -2.1716   -1.6787 H   0  0  0  0  0  0  0  0  0  0  0  0
   -2.1074    1.0295    1.8974 H   0  0  0  0  0  0  0  0  0  0  0  0
   -4.0515    2.2950    1.0884 H   0  0  0  0  0  0  0  0  0  0  0  0
   -5.7912    1.6983   -2.0655 H   0  0  0  0  0  0  0  0  0  0  0  0
   -4.1665   -0.1087   -2.4680 H   0  0  0  0  0  0  0  0  0  0  0  0
   -0.9145   -2.1268    0.5066 H   0  0  0  0  0  0  0  0  0  0  0  0
   -0.7687   -0.9434    1.8205 H   0  0  0  0  0  0  0  0  0  0  0  0
    0.5568    0.5925    0.3693 H   0  0  0  0  0  0  0  0  0  0  0  0
    0.4352   -0.5719   -1.0022 H   0  0  0  0  0  0  0  0  0  0  0  0
    1.7857   -1.1069    1.7345 H   0  0  0  0  0  0  0  0  0  0  0  0
    1.5639   -2.3275    0.4369 H   0  0  0  0  0  0  0  0  0  0  0  0
    2.8914   -0.8441   -1.1509 H   0  0  0  0  0  0  0  0  0  0  0  0
    3.8024   -1.5260    0.2374 H   0  0  0  0  0  0  0  0  0  0  0  0
    3.5111    0.6654    1.4877 H   0  0  0  0  0  0  0  0  0  0  0  0
    2.7143    1.3609    0.0257 H   0  0  0  0  0  0  0  0  0  0  0  0
    5.5846    0.2429    0.1550 H   0  0  0  0  0  0  0  0  0  0  0  0
    5.1035    1.9808    0.1060 H   0  0  0  0  0  0  0  0  0  0  0  0
    4.7762    0.9217   -1.3180 H   0  0  0  0  0  0  0  0  0  0  0  0
  1  2  1  0
  2  8  2  0
  2  3  1  0
  3  9  1  0
  3  4  2  0
  4  5  1  0
  5  6  2  0
  6  8  1  0
  6  7  1  0
  9 10  1  0
 10 11  1  0
 11 12  1  0
 12 13  1  0
 13 14  1  0
  1 15  1  0
  4 16  1  0
  5 17  1  0
  7 18  1  0
  8 19  1  0
  9 20  1  0
  9 21  1  0
 10 22  1  0
 10 23  1  0
 11 24  1  0
 11 25  1  0
 12 26  1  0
 12 27  1  0
 13 28  1  0
 13 29  1  0
 14 30  1  0
 14 31  1  0
 14 32  1  0
M  END
$$$$
