Cc1c(NC(CN(CC)CC)=O)c(C)ccc1
     RDKit          3D

 39 39  0  0  0  0  0  0  0  0999 V2000
   -1.4096    0.4316    2.5598 C   0  0  0  0  0  0  0  0  0  0  0  0
   -2.3753    0.6793    1.4324 C   0  0  0  0  0  0  0  0  0  0  0  0
   -1.9075    0.9264    0.1229 C   0  0  0  0  0  0  0  0  0  0  0  0
   -0.4949    0.9586   -0.1343 N   0  0  0  0  0  0  0  0  0  0  0  0
    0.1540   -0.0243   -0.9534 C   0  0  0  0  0  0  0  0  0  0  0  0
    1.6187    0.1126   -1.2857 C   0  0  0  0  0  0  0  0  0  0  0  0
    2.4977   -0.7568   -0.4651 N   0  0  0  0  0  0  0  0  0  0  0  0
    2.2346   -2.1948   -0.6938 C   0  0  0  0  0  0  0  0  0  0  0  0
    3.5307   -2.9948   -0.5908 C   0  0  0  0  0  0  0  0  0  0  0  0
    2.4806   -0.4094    0.9752 C   0  0  0  0  0  0  0  0  0  0  0  0
    3.3542    0.8125    1.2525 C   0  0  0  0  0  0  0  0  0  0  0  0
   -0.4951   -1.0117   -1.3915 O   0  0  0  0  0  0  0  0  0  0  0  0
   -2.8351    1.1654   -0.9200 C   0  0  0  0  0  0  0  0  0  0  0  0
   -2.3787    1.4751   -2.3194 C   0  0  0  0  0  0  0  0  0  0  0  0
   -4.2104    1.0952   -0.6505 C   0  0  0  0  0  0  0  0  0  0  0  0
   -4.6656    0.8342    0.6417 C   0  0  0  0  0  0  0  0  0  0  0  0
   -3.7561    0.6322    1.6787 C   0  0  0  0  0  0  0  0  0  0  0  0
   -1.9375    0.2525    3.5191 H   0  0  0  0  0  0  0  0  0  0  0  0
   -0.7454    1.3109    2.6907 H   0  0  0  0  0  0  0  0  0  0  0  0
   -0.7948   -0.4637    2.3335 H   0  0  0  0  0  0  0  0  0  0  0  0
    0.0889    1.6569    0.3789 H   0  0  0  0  0  0  0  0  0  0  0  0
    1.7651   -0.1237   -2.3622 H   0  0  0  0  0  0  0  0  0  0  0  0
    1.9262    1.1740   -1.1806 H   0  0  0  0  0  0  0  0  0  0  0  0
    1.4859   -2.5892    0.0300 H   0  0  0  0  0  0  0  0  0  0  0  0
    1.8308   -2.3707   -1.7163 H   0  0  0  0  0  0  0  0  0  0  0  0
    3.3297   -4.0611   -0.8283 H   0  0  0  0  0  0  0  0  0  0  0  0
    3.9545   -2.9370    0.4330 H   0  0  0  0  0  0  0  0  0  0  0  0
    4.2769   -2.6024   -1.3144 H   0  0  0  0  0  0  0  0  0  0  0  0
    1.4493   -0.2288    1.3443 H   0  0  0  0  0  0  0  0  0  0  0  0
    2.8914   -1.2439    1.5848 H   0  0  0  0  0  0  0  0  0  0  0  0
    2.9082    1.7271    0.8144 H   0  0  0  0  0  0  0  0  0  0  0  0
    4.3708    0.6582    0.8321 H   0  0  0  0  0  0  0  0  0  0  0  0
    3.4428    0.9641    2.3483 H   0  0  0  0  0  0  0  0  0  0  0  0
   -1.4771    2.1234   -2.3043 H   0  0  0  0  0  0  0  0  0  0  0  0
   -3.1673    2.0140   -2.8850 H   0  0  0  0  0  0  0  0  0  0  0  0
   -2.1452    0.5325   -2.8541 H   0  0  0  0  0  0  0  0  0  0  0  0
   -4.9340    1.2543   -1.4412 H   0  0  0  0  0  0  0  0  0  0  0  0
   -5.7287    0.7898    0.8402 H   0  0  0  0  0  0  0  0  0  0  0  0
   -4.1329    0.4314    2.6739 H   0  0  0  0  0  0  0  0  0  0  0  0
  1  2  1  0
  2 17  2  0
  2  3  1  0
  3 13  2  0
  3  4  1  0
  4  5  1  0
  5  6  1  0
  5 12  2  0
  6  7  1  0
  7  8  1  0
  7 10  1  0
  8  9  1  0
 10 11  1  0
 13 14  1  0
 13 15  1  0
 15 16  2  0
 16 17  1  0
  1 18  1  0
  1 19  1  0
  1 20  1  0
  4 21  1  0
  6 22  1  0
  6 23  1  0
  8 24  1  0
  8 25  1  0
  9 26  1  0
  9 27  1  0
  9 28  1  0
 10 29  1  0
 10 30  1  0
 11 31  1  0
 11 32  1  0
 11 33  1  0
 14 34  1  0
 14 35  1  0
 14 36  1  0
 15 37  1  0
 16 38  1  0
 17 39  1  0
M  END
$$$$
