CC(CO)CC
     RDKit          3D

 18 17  0  0  1  0  0  0  0  0999 V2000
   -1.1215   -0.7969    0.6988 C   0  0  0  0  0  0  0  0  0  0  0  0
   -0.3717   -0.0212   -0.3965 C   0  0  1  0  0  0  0  0  0  0  0  0
   -1.0242    1.3548   -0.6350 C   0  0  0  0  0  0  0  0  0  0  0  0
   -0.9063    2.1793    0.4952 O   0  0  0  0  0  0  0  0  0  0  0  0
    1.1309    0.1363   -0.0681 C   0  0  0  0  0  0  0  0  0  0  0  0
    1.8881   -1.1917   -0.1042 C   0  0  0  0  0  0  0  0  0  0  0  0
   -0.9574   -0.3344    1.6953 H   0  0  0  0  0  0  0  0  0  0  0  0
   -0.7787   -1.8517    0.7320 H   0  0  0  0  0  0  0  0  0  0  0  0
   -2.2115   -0.8089    0.4846 H   0  0  0  0  0  0  0  0  0  0  0  0
   -0.4677   -0.5943   -1.3457 H   0  0  0  0  0  0  0  0  0  0  0  0
   -2.0938    1.2296   -0.9239 H   0  0  0  0  0  0  0  0  0  0  0  0
   -0.5211    1.8557   -1.4896 H   0  0  0  0  0  0  0  0  0  0  0  0
   -1.6892    1.9881    1.0745 H   0  0  0  0  0  0  0  0  0  0  0  0
    1.5998    0.8121   -0.8166 H   0  0  0  0  0  0  0  0  0  0  0  0
    1.2600    0.6020    0.9335 H   0  0  0  0  0  0  0  0  0  0  0  0
    2.9752   -0.9996    0.0159 H   0  0  0  0  0  0  0  0  0  0  0  0
    1.7263   -1.7060   -1.0753 H   0  0  0  0  0  0  0  0  0  0  0  0
    1.5628   -1.8532    0.7250 H   0  0  0  0  0  0  0  0  0  0  0  0
  1  2  1  0
  2  5  1  0
  2  3  1  0
  3  4  1  0
  5  6  1  0
  1  7  1  0
  1  8  1  0
  1  9  1  0
  2 10  1  6
  3 11  1  0
  3 12  1  0
  4 13  1  0
  5 14  1  0
  5 15  1  0
  6 16  1  0
  6 17  1  0
  6 18  1  0
M  END
$$$$
