OC(C(C(C(CO)O2)O)O)C2Oc1ccccc1CO
     RDKit          3D

 38 39  0  0  1  0  0  0  0  0999 V2000
   -1.5015   -1.2962   -2.7163 O   0  0  0  0  0  0  0  0  0  0  0  0
   -1.0746   -0.1767   -1.9776 C   0  0  1  0  0  0  0  0  0  0  0  0
   -2.2811    0.6490   -1.4830 C   0  0  1  0  0  0  0  0  0  0  0  0
   -2.9505   -0.0261   -0.2700 C   0  0  1  0  0  0  0  0  0  0  0  0
   -1.8840   -0.4070    0.7860 C   0  0  1  0  0  0  0  0  0  0  0  0
   -2.5117   -1.1534    1.9716 C   0  0  0  0  0  0  0  0  0  0  0  0
   -3.3201   -0.2904    2.7234 O   0  0  0  0  0  0  0  0  0  0  0  0
   -0.9002   -1.2557    0.2143 O   0  0  0  0  0  0  0  0  0  0  0  0
   -3.8987    0.8447    0.2930 O   0  0  0  0  0  0  0  0  0  0  0  0
   -1.8627    1.9435   -1.1269 O   0  0  0  0  0  0  0  0  0  0  0  0
   -0.1640   -0.5982   -0.8045 C   0  0  2  0  0  0  0  0  0  0  0  0
    0.5297    0.5384   -0.2804 O   0  0  0  0  0  0  0  0  0  0  0  0
    1.9226    0.6523   -0.2968 C   0  0  0  0  0  0  0  0  0  0  0  0
    2.5035    1.6039   -1.1434 C   0  0  0  0  0  0  0  0  0  0  0  0
    3.8908    1.7515   -1.1946 C   0  0  0  0  0  0  0  0  0  0  0  0
    4.7079    0.9545   -0.3917 C   0  0  0  0  0  0  0  0  0  0  0  0
    4.1397    0.0134    0.4707 C   0  0  0  0  0  0  0  0  0  0  0  0
    2.7438   -0.1452    0.5342 C   0  0  0  0  0  0  0  0  0  0  0  0
    2.1519   -1.1340    1.5089 C   0  0  0  0  0  0  0  0  0  0  0  0
    1.2594   -0.4930    2.3793 O   0  0  0  0  0  0  0  0  0  0  0  0
   -1.9333   -1.9339   -2.0912 H   0  0  0  0  0  0  0  0  0  0  0  0
   -0.4742    0.4549   -2.6687 H   0  0  0  0  0  0  0  0  0  0  0  0
   -3.0348    0.7193   -2.3025 H   0  0  0  0  0  0  0  0  0  0  0  0
   -3.4611   -0.9583   -0.6082 H   0  0  0  0  0  0  0  0  0  0  0  0
   -1.4128    0.5159    1.1967 H   0  0  0  0  0  0  0  0  0  0  0  0
   -3.1113   -2.0167    1.6042 H   0  0  0  0  0  0  0  0  0  0  0  0
   -1.6973   -1.5454    2.6219 H   0  0  0  0  0  0  0  0  0  0  0  0
   -3.6994   -0.8388    3.4584 H   0  0  0  0  0  0  0  0  0  0  0  0
   -4.6810    0.8506   -0.3184 H   0  0  0  0  0  0  0  0  0  0  0  0
   -1.7206    2.4437   -1.9728 H   0  0  0  0  0  0  0  0  0  0  0  0
    0.5755   -1.3259   -1.2079 H   0  0  0  0  0  0  0  0  0  0  0  0
    1.8753    2.2236   -1.7708 H   0  0  0  0  0  0  0  0  0  0  0  0
    4.3328    2.4842   -1.8574 H   0  0  0  0  0  0  0  0  0  0  0  0
    5.7832    1.0707   -0.4322 H   0  0  0  0  0  0  0  0  0  0  0  0
    4.7912   -0.5855    1.0950 H   0  0  0  0  0  0  0  0  0  0  0  0
    1.6114   -1.9245    0.9509 H   0  0  0  0  0  0  0  0  0  0  0  0
    2.9442   -1.6496    2.0980 H   0  0  0  0  0  0  0  0  0  0  0  0
    1.8120    0.0402    3.0088 H   0  0  0  0  0  0  0  0  0  0  0  0
  1  2  1  0
  2  3  1  0
  2 11  1  0
  3  4  1  0
  3 10  1  0
  4  5  1  0
  4  9  1  0
  5  6  1  0
  5  8  1  0
  6  7  1  0
  8 11  1  0
 11 12  1  0
 12 13  1  0
 13 14  2  0
 13 18  1  0
 14 15  1  0
 15 16  2  0
 16 17  1  0
 17 18  2  0
 18 19  1  0
 19 20  1  0
  1 21  1  0
  2 22  1  6
  3 23  1  6
  4 24  1  6
  5 25  1  1
  6 26  1  0
  6 27  1  0
  7 28  1  0
  9 29  1  0
 10 30  1  0
 11 31  1  6
 14 32  1  0
 15 33  1  0
 16 34  1  0
 17 35  1  0
 19 36  1  0
 19 37  1  0
 20 38  1  0
M  END
$$$$
