O=C(C=C)OCC
     RDKit          3D

 15 14  0  0  0  0  0  0  0  0999 V2000
    0.0915   -1.5511    1.1059 O   0  0  0  0  0  0  0  0  0  0  0  0
    0.6473   -0.7616    0.2951 C   0  0  0  0  0  0  0  0  0  0  0  0
    2.1131   -0.6494    0.2977 C   0  0  0  0  0  0  0  0  0  0  0  0
    2.7636    0.1648   -0.5301 C   0  0  0  0  0  0  0  0  0  0  0  0
   -0.1195   -0.0065   -0.6019 O   0  0  0  0  0  0  0  0  0  0  0  0
   -1.5454   -0.0278   -0.6287 C   0  0  0  0  0  0  0  0  0  0  0  0
   -2.1175    0.7805    0.5300 C   0  0  0  0  0  0  0  0  0  0  0  0
    2.6825   -1.2489    0.9975 H   0  0  0  0  0  0  0  0  0  0  0  0
    2.2375    0.7836   -1.2460 H   0  0  0  0  0  0  0  0  0  0  0  0
    3.8440    0.2178   -0.4954 H   0  0  0  0  0  0  0  0  0  0  0  0
   -1.9185   -1.0744   -0.5915 H   0  0  0  0  0  0  0  0  0  0  0  0
   -1.8875    0.4259   -1.5827 H   0  0  0  0  0  0  0  0  0  0  0  0
   -1.8293    0.3248    1.5002 H   0  0  0  0  0  0  0  0  0  0  0  0
   -3.2255    0.7996    0.4605 H   0  0  0  0  0  0  0  0  0  0  0  0
   -1.7362    1.8227    0.4894 H   0  0  0  0  0  0  0  0  0  0  0  0
  1  2  2  0
  2  3  1  0
  2  5  1  0
  3  4  2  3
  5  6  1  0
  6  7  1  0
  3  8  1  0
  4  9  1  0
  4 10  1  0
  6 11  1  0
  6 12  1  0
  7 13  1  0
  7 14  1  0
  7 15  1  0
M  END
$$$$
