O=C(CS1)NC1=S
     RDKit          3D

 10 10  0  0  0  0  0  0  0  0999 V2000
   -1.3160    1.7810   -0.2188 O   0  0  0  0  0  0  0  0  0  0  0  0
   -0.6014    0.7573   -0.0560 C   0  0  0  0  0  0  0  0  0  0  0  0
   -1.1828   -0.6101    0.0655 C   0  0  0  0  0  0  0  0  0  0  0  0
    0.2053   -1.7747    0.3580 S   0  0  0  0  0  0  0  0  0  0  0  0
    0.8095    0.8381   -0.0037 N   0  0  0  0  0  0  0  0  0  0  0  0
    1.3838   -0.4408    0.1822 C   0  0  0  0  0  0  0  0  0  0  0  0
    2.9445   -0.7320   -0.2028 S   0  0  0  0  0  0  0  0  0  0  0  0
   -1.8901   -0.6493    0.9199 H   0  0  0  0  0  0  0  0  0  0  0  0
   -1.7068   -0.8833   -0.8740 H   0  0  0  0  0  0  0  0  0  0  0  0
    1.3540    1.7138   -0.1703 H   0  0  0  0  0  0  0  0  0  0  0  0
  1  2  2  0
  2  3  1  0
  2  5  1  0
  3  4  1  0
  4  6  1  0
  5  6  1  0
  6  7  2  0
  3  8  1  0
  3  9  1  0
  5 10  1  0
M  END
$$$$
