S=C(NC=C1)NC1=O
     RDKit          3D

 12 12  0  0  0  0  0  0  0  0999 V2000
    2.7009   -1.2310   -0.0727 S   0  0  0  0  0  0  0  0  0  0  0  0
    1.2069   -0.5570   -0.0325 C   0  0  0  0  0  0  0  0  0  0  0  0
    0.1010   -1.3528    0.0016 N   0  0  0  0  0  0  0  0  0  0  0  0
   -1.1450   -0.8108    0.0352 C   0  0  0  0  0  0  0  0  0  0  0  0
   -1.3041    0.5732    0.0352 C   0  0  0  0  0  0  0  0  0  0  0  0
    1.0703    0.7994   -0.0330 N   0  0  0  0  0  0  0  0  0  0  0  0
   -0.1630    1.3746    0.0001 C   0  0  0  0  0  0  0  0  0  0  0  0
   -0.2755    2.6295   -0.0008 O   0  0  0  0  0  0  0  0  0  0  0  0
    0.1993   -2.3935    0.0022 H   0  0  0  0  0  0  0  0  0  0  0  0
   -2.0158   -1.4536    0.0620 H   0  0  0  0  0  0  0  0  0  0  0  0
   -2.2939    1.0119    0.0619 H   0  0  0  0  0  0  0  0  0  0  0  0
    1.9191    1.4101   -0.0591 H   0  0  0  0  0  0  0  0  0  0  0  0
  1  2  2  0
  2  3  1  0
  2  6  1  0
  3  4  1  0
  4  5  2  0
  5  7  1  0
  6  7  1  0
  7  8  2  0
  3  9  1  0
  4 10  1  0
  5 11  1  0
  6 12  1  0
M  END
$$$$
