C1=CCCC1
     RDKit          3D

 13 13  0  0  0  0  0  0  0  0999 V2000
   -0.9278    0.7260   -0.6483 C   0  0  0  0  0  0  0  0  0  0  0  0
    0.2990    1.2004   -0.5271 C   0  0  0  0  0  0  0  0  0  0  0  0
    1.1928    0.2740    0.2139 C   0  0  0  0  0  0  0  0  0  0  0  0
    0.3009   -0.9220    0.5626 C   0  0  0  0  0  0  0  0  0  0  0  0
   -1.0843   -0.6065   -0.0111 C   0  0  0  0  0  0  0  0  0  0  0  0
   -1.7266    1.2554   -1.1574 H   0  0  0  0  0  0  0  0  0  0  0  0
    0.6119    2.1596   -0.9263 H   0  0  0  0  0  0  0  0  0  0  0  0
    1.5747    0.7688    1.1326 H   0  0  0  0  0  0  0  0  0  0  0  0
    2.0404   -0.0353   -0.4345 H   0  0  0  0  0  0  0  0  0  0  0  0
    0.2430   -1.0540    1.6653 H   0  0  0  0  0  0  0  0  0  0  0  0
    0.7058   -1.8529    0.1084 H   0  0  0  0  0  0  0  0  0  0  0  0
   -1.8479   -0.5547    0.7944 H   0  0  0  0  0  0  0  0  0  0  0  0
   -1.3821   -1.3588   -0.7726 H   0  0  0  0  0  0  0  0  0  0  0  0
  1  5  1  0
  1  2  2  0
  2  3  1  0
  3  4  1  0
  4  5  1  0
  1  6  1  0
  2  7  1  0
  3  8  1  0
  3  9  1  0
  4 10  1  0
  4 11  1  0
  5 12  1  0
  5 13  1  0
M  END
$$$$
