CC(OCCCCCC)=O
     RDKit          3D

 26 25  0  0  0  0  0  0  0  0999 V2000
    4.8460    0.1098    0.2799 C   0  0  0  0  0  0  0  0  0  0  0  0
    3.4115    0.2818   -0.0889 C   0  0  0  0  0  0  0  0  0  0  0  0
    2.5738   -0.8385   -0.1179 O   0  0  0  0  0  0  0  0  0  0  0  0
    1.1799   -0.7686   -0.4123 C   0  0  0  0  0  0  0  0  0  0  0  0
    0.4061   -0.2133    0.7903 C   0  0  0  0  0  0  0  0  0  0  0  0
   -1.1168   -0.2885    0.6003 C   0  0  0  0  0  0  0  0  0  0  0  0
   -1.6251    0.6876   -0.4751 C   0  0  0  0  0  0  0  0  0  0  0  0
   -3.1575    0.7979   -0.4925 C   0  0  0  0  0  0  0  0  0  0  0  0
   -3.8352   -0.4769   -0.9939 C   0  0  0  0  0  0  0  0  0  0  0  0
    2.9695    1.4276   -0.3763 O   0  0  0  0  0  0  0  0  0  0  0  0
    5.3773    1.0850    0.2551 H   0  0  0  0  0  0  0  0  0  0  0  0
    4.9161   -0.3140    1.3032 H   0  0  0  0  0  0  0  0  0  0  0  0
    5.3314   -0.5846   -0.4370 H   0  0  0  0  0  0  0  0  0  0  0  0
    1.0180   -0.1416   -1.3151 H   0  0  0  0  0  0  0  0  0  0  0  0
    0.8217   -1.7958   -0.6364 H   0  0  0  0  0  0  0  0  0  0  0  0
    0.6752   -0.8121    1.6876 H   0  0  0  0  0  0  0  0  0  0  0  0
    0.7091    0.8376    0.9868 H   0  0  0  0  0  0  0  0  0  0  0  0
   -1.5952   -0.0380    1.5724 H   0  0  0  0  0  0  0  0  0  0  0  0
   -1.4037   -1.3299    0.3400 H   0  0  0  0  0  0  0  0  0  0  0  0
   -1.2117    1.6995   -0.2711 H   0  0  0  0  0  0  0  0  0  0  0  0
   -1.2691    0.3721   -1.4792 H   0  0  0  0  0  0  0  0  0  0  0  0
   -3.4417    1.6329   -1.1691 H   0  0  0  0  0  0  0  0  0  0  0  0
   -3.5354    1.0461    0.5231 H   0  0  0  0  0  0  0  0  0  0  0  0
   -3.4338   -0.7654   -1.9886 H   0  0  0  0  0  0  0  0  0  0  0  0
   -4.9271   -0.3001   -1.0915 H   0  0  0  0  0  0  0  0  0  0  0  0
   -3.6831   -1.3104   -0.2773 H   0  0  0  0  0  0  0  0  0  0  0  0
  1  2  1  0
  2 10  2  0
  2  3  1  0
  3  4  1  0
  4  5  1  0
  5  6  1  0
  6  7  1  0
  7  8  1  0
  8  9  1  0
  1 11  1  0
  1 12  1  0
  1 13  1  0
  4 14  1  0
  4 15  1  0
  5 16  1  0
  5 17  1  0
  6 18  1  0
  6 19  1  0
  7 20  1  0
  7 21  1  0
  8 22  1  0
  8 23  1  0
  9 24  1  0
  9 25  1  0
  9 26  1  0
M  END
$$$$
