C1CCOCC1
     RDKit          3D

 16 16  0  0  0  0  0  0  0  0999 V2000
   -0.4103   -1.0450    0.5435 C   0  0  0  0  0  0  0  0  0  0  0  0
   -1.3611   -0.0878   -0.1784 C   0  0  0  0  0  0  0  0  0  0  0  0
   -0.7436    1.3149   -0.2434 C   0  0  0  0  0  0  0  0  0  0  0  0
    0.5158    1.2833   -0.8903 O   0  0  0  0  0  0  0  0  0  0  0  0
    1.4332    0.5205   -0.1274 C   0  0  0  0  0  0  0  0  0  0  0  0
    0.9955   -0.9478   -0.0528 C   0  0  0  0  0  0  0  0  0  0  0  0
   -0.3727   -0.7841    1.6243 H   0  0  0  0  0  0  0  0  0  0  0  0
   -0.7857   -2.0869    0.4519 H   0  0  0  0  0  0  0  0  0  0  0  0
   -2.3317   -0.0467    0.3611 H   0  0  0  0  0  0  0  0  0  0  0  0
   -1.5483   -0.4566   -1.2107 H   0  0  0  0  0  0  0  0  0  0  0  0
   -1.4216    1.9723   -0.8274 H   0  0  0  0  0  0  0  0  0  0  0  0
   -0.6609    1.7563    0.7763 H   0  0  0  0  0  0  0  0  0  0  0  0
    1.5582    0.9465    0.8945 H   0  0  0  0  0  0  0  0  0  0  0  0
    2.4259    0.5682   -0.6224 H   0  0  0  0  0  0  0  0  0  0  0  0
    0.9978   -1.3858   -1.0751 H   0  0  0  0  0  0  0  0  0  0  0  0
    1.7095   -1.5214    0.5764 H   0  0  0  0  0  0  0  0  0  0  0  0
  1  2  1  0
  1  6  1  0
  2  3  1  0
  3  4  1  0
  4  5  1  0
  5  6  1  0
  1  7  1  0
  1  8  1  0
  2  9  1  0
  2 10  1  0
  3 11  1  0
  3 12  1  0
  5 13  1  0
  5 14  1  0
  6 15  1  0
  6 16  1  0
M  END
$$$$
