CCCCCCCCCO
     RDKit          3D

 30 29  0  0  0  0  0  0  0  0999 V2000
    2.6617    2.1716   -0.4755 C   0  0  0  0  0  0  0  0  0  0  0  0
    3.0901    0.8308    0.1203 C   0  0  0  0  0  0  0  0  0  0  0  0
    1.9110   -0.1349    0.3130 C   0  0  0  0  0  0  0  0  0  0  0  0
    1.3408   -0.6426   -1.0228 C   0  0  0  0  0  0  0  0  0  0  0  0
    0.3469   -1.8051   -0.8458 C   0  0  0  0  0  0  0  0  0  0  0  0
   -0.8971   -1.4679   -0.0037 C   0  0  0  0  0  0  0  0  0  0  0  0
   -1.7431   -0.3373   -0.6143 C   0  0  0  0  0  0  0  0  0  0  0  0
   -3.1121   -0.1864    0.0700 C   0  0  0  0  0  0  0  0  0  0  0  0
   -3.0258    0.2719    1.5317 C   0  0  0  0  0  0  0  0  0  0  0  0
   -2.4006    1.5242    1.6271 O   0  0  0  0  0  0  0  0  0  0  0  0
    1.8522    2.6271    0.1337 H   0  0  0  0  0  0  0  0  0  0  0  0
    3.5291    2.8648   -0.4855 H   0  0  0  0  0  0  0  0  0  0  0  0
    2.3105    2.0427   -1.5202 H   0  0  0  0  0  0  0  0  0  0  0  0
    3.8652    0.3657   -0.5268 H   0  0  0  0  0  0  0  0  0  0  0  0
    3.5528    1.0223    1.1127 H   0  0  0  0  0  0  0  0  0  0  0  0
    2.2707   -1.0035    0.9068 H   0  0  0  0  0  0  0  0  0  0  0  0
    1.1169    0.3743    0.9003 H   0  0  0  0  0  0  0  0  0  0  0  0
    2.1773   -1.0090   -1.6571 H   0  0  0  0  0  0  0  0  0  0  0  0
    0.8525    0.1872   -1.5741 H   0  0  0  0  0  0  0  0  0  0  0  0
    0.8748   -2.6604   -0.3704 H   0  0  0  0  0  0  0  0  0  0  0  0
    0.0189   -2.1469   -1.8517 H   0  0  0  0  0  0  0  0  0  0  0  0
   -1.5181   -2.3876    0.0641 H   0  0  0  0  0  0  0  0  0  0  0  0
   -0.5883   -1.2050    1.0289 H   0  0  0  0  0  0  0  0  0  0  0  0
   -1.1951    0.6267   -0.5583 H   0  0  0  0  0  0  0  0  0  0  0  0
   -1.9212   -0.5598   -1.6890 H   0  0  0  0  0  0  0  0  0  0  0  0
   -3.7103    0.5587   -0.4984 H   0  0  0  0  0  0  0  0  0  0  0  0
   -3.6594   -1.1531    0.0234 H   0  0  0  0  0  0  0  0  0  0  0  0
   -4.0579    0.3678    1.9300 H   0  0  0  0  0  0  0  0  0  0  0  0
   -2.5090   -0.4894    2.1591 H   0  0  0  0  0  0  0  0  0  0  0  0
   -1.4335    1.3530    1.7723 H   0  0  0  0  0  0  0  0  0  0  0  0
  1  2  1  0
  2  3  1  0
  3  4  1  0
  4  5  1  0
  5  6  1  0
  6  7  1  0
  7  8  1  0
  8  9  1  0
  9 10  1  0
  1 11  1  0
  1 12  1  0
  1 13  1  0
  2 14  1  0
  2 15  1  0
  3 16  1  0
  3 17  1  0
  4 18  1  0
  4 19  1  0
  5 20  1  0
  5 21  1  0
  6 22  1  0
  6 23  1  0
  7 24  1  0
  7 25  1  0
  8 26  1  0
  8 27  1  0
  9 28  1  0
  9 29  1  0
 10 30  1  0
M  END
$$$$
