CCCCCCCCCCCC(O)=O
     RDKit          3D

 38 37  0  0  0  0  0  0  0  0999 V2000
    3.7138    1.9831   -1.6252 C   0  0  0  0  0  0  0  0  0  0  0  0
    3.5861    0.5019   -1.2817 C   0  0  0  0  0  0  0  0  0  0  0  0
    3.0928    0.3094    0.1594 C   0  0  0  0  0  0  0  0  0  0  0  0
    3.0938   -1.1657    0.5993 C   0  0  0  0  0  0  0  0  0  0  0  0
    2.1822   -2.0955   -0.2274 C   0  0  0  0  0  0  0  0  0  0  0  0
    0.7058   -1.6661   -0.2954 C   0  0  0  0  0  0  0  0  0  0  0  0
    0.0381   -1.6106    1.0894 C   0  0  0  0  0  0  0  0  0  0  0  0
   -1.4850   -1.4264    1.0033 C   0  0  0  0  0  0  0  0  0  0  0  0
   -1.8828   -0.0278    0.5077 C   0  0  0  0  0  0  0  0  0  0  0  0
   -3.4033    0.1630    0.5645 C   0  0  0  0  0  0  0  0  0  0  0  0
   -3.8026    1.5531    0.0576 C   0  0  0  0  0  0  0  0  0  0  0  0
   -5.2896    1.7418    0.1318 C   0  0  0  0  0  0  0  0  0  0  0  0
   -5.8458    2.7005    0.9745 O   0  0  0  0  0  0  0  0  0  0  0  0
   -6.0480    1.0330   -0.5812 O   0  0  0  0  0  0  0  0  0  0  0  0
    4.0606    2.0929   -2.6743 H   0  0  0  0  0  0  0  0  0  0  0  0
    2.7302    2.4889   -1.5212 H   0  0  0  0  0  0  0  0  0  0  0  0
    4.4516    2.4733   -0.9548 H   0  0  0  0  0  0  0  0  0  0  0  0
    2.8704    0.0393   -1.9938 H   0  0  0  0  0  0  0  0  0  0  0  0
    4.5780    0.0161   -1.4087 H   0  0  0  0  0  0  0  0  0  0  0  0
    2.0789    0.7468    0.2781 H   0  0  0  0  0  0  0  0  0  0  0  0
    3.7675    0.8656    0.8465 H   0  0  0  0  0  0  0  0  0  0  0  0
    4.1338   -1.5545    0.5411 H   0  0  0  0  0  0  0  0  0  0  0  0
    2.7998   -1.2194    1.6691 H   0  0  0  0  0  0  0  0  0  0  0  0
    2.2374   -3.1167    0.2089 H   0  0  0  0  0  0  0  0  0  0  0  0
    2.5794   -2.1767   -1.2615 H   0  0  0  0  0  0  0  0  0  0  0  0
    0.6250   -0.6849   -0.8061 H   0  0  0  0  0  0  0  0  0  0  0  0
    0.1679   -2.4072   -0.9260 H   0  0  0  0  0  0  0  0  0  0  0  0
    0.2396   -2.5640    1.6251 H   0  0  0  0  0  0  0  0  0  0  0  0
    0.4724   -0.7846    1.6925 H   0  0  0  0  0  0  0  0  0  0  0  0
   -1.9220   -2.2029    0.3378 H   0  0  0  0  0  0  0  0  0  0  0  0
   -1.9062   -1.5803    2.0211 H   0  0  0  0  0  0  0  0  0  0  0  0
   -1.3924    0.7431    1.1420 H   0  0  0  0  0  0  0  0  0  0  0  0
   -1.5437    0.1074   -0.5415 H   0  0  0  0  0  0  0  0  0  0  0  0
   -3.8935   -0.6146   -0.0624 H   0  0  0  0  0  0  0  0  0  0  0  0
   -3.7514    0.0425    1.6144 H   0  0  0  0  0  0  0  0  0  0  0  0
   -3.4770    1.6804   -0.9976 H   0  0  0  0  0  0  0  0  0  0  0  0
   -3.2955    2.3289    0.6710 H   0  0  0  0  0  0  0  0  0  0  0  0
   -5.2662    3.2870    1.5628 H   0  0  0  0  0  0  0  0  0  0  0  0
  1  2  1  0
  2  3  1  0
  3  4  1  0
  4  5  1  0
  5  6  1  0
  6  7  1  0
  7  8  1  0
  8  9  1  0
  9 10  1  0
 10 11  1  0
 11 12  1  0
 12 13  1  0
 12 14  2  0
  1 15  1  0
  1 16  1  0
  1 17  1  0
  2 18  1  0
  2 19  1  0
  3 20  1  0
  3 21  1  0
  4 22  1  0
  4 23  1  0
  5 24  1  0
  5 25  1  0
  6 26  1  0
  6 27  1  0
  7 28  1  0
  7 29  1  0
  8 30  1  0
  8 31  1  0
  9 32  1  0
  9 33  1  0
 10 34  1  0
 10 35  1  0
 11 36  1  0
 11 37  1  0
 13 38  1  0
M  END
$$$$
