O=C(O)C(O)=O
     RDKit          3D

  8  7  0  0  0  0  0  0  0  0999 V2000
   -0.3428    1.7051    0.1720 O   0  0  0  0  0  0  0  0  0  0  0  0
   -0.5636    0.4736    0.0318 C   0  0  0  0  0  0  0  0  0  0  0  0
   -1.8804    0.0281   -0.0612 O   0  0  0  0  0  0  0  0  0  0  0  0
    0.5636   -0.4736   -0.0318 C   0  0  0  0  0  0  0  0  0  0  0  0
    1.8804   -0.0281    0.0612 O   0  0  0  0  0  0  0  0  0  0  0  0
    0.3428   -1.7051   -0.1720 O   0  0  0  0  0  0  0  0  0  0  0  0
   -2.1046   -0.9531   -0.1746 H   0  0  0  0  0  0  0  0  0  0  0  0
    2.1046    0.9531    0.1746 H   0  0  0  0  0  0  0  0  0  0  0  0
  1  2  2  0
  2  4  1  0
  2  3  1  0
  4  5  1  0
  4  6  2  0
  3  7  1  0
  5  8  1  0
M  END
$$$$
