CN(CCCN2c1ccccc1Sc3c2cc(C(F)(F)F)cc3)C
     RDKit          3D

 43 45  0  0  0  0  0  0  0  0999 V2000
    4.9495    1.6639    0.0214 C   0  0  0  0  0  0  0  0  0  0  0  0
    3.8064    1.0509    0.7174 N   0  0  0  0  0  0  0  0  0  0  0  0
    2.9859    0.2715   -0.2357 C   0  0  0  0  0  0  0  0  0  0  0  0
    1.5454    0.1344    0.2752 C   0  0  0  0  0  0  0  0  0  0  0  0
    0.6484   -0.5456   -0.7672 C   0  0  0  0  0  0  0  0  0  0  0  0
   -0.7103   -0.7396   -0.2358 N   0  0  0  0  0  0  0  0  0  0  0  0
   -1.2981   -2.0560   -0.1556 C   0  0  0  0  0  0  0  0  0  0  0  0
   -1.1993   -2.9601   -1.2279 C   0  0  0  0  0  0  0  0  0  0  0  0
   -1.9128   -4.1626   -1.2024 C   0  0  0  0  0  0  0  0  0  0  0  0
   -2.7463   -4.4620   -0.1211 C   0  0  0  0  0  0  0  0  0  0  0  0
   -2.8589   -3.5662    0.9454 C   0  0  0  0  0  0  0  0  0  0  0  0
   -2.1281   -2.3736    0.9359 C   0  0  0  0  0  0  0  0  0  0  0  0
   -2.1840   -1.2680    2.3489 S   0  0  0  0  0  0  0  0  0  0  0  0
   -2.3559    0.2014    1.3306 C   0  0  0  0  0  0  0  0  0  0  0  0
   -1.5112    0.3742    0.2200 C   0  0  0  0  0  0  0  0  0  0  0  0
   -1.5704    1.5752   -0.5082 C   0  0  0  0  0  0  0  0  0  0  0  0
   -2.4579    2.5987   -0.1299 C   0  0  0  0  0  0  0  0  0  0  0  0
   -2.5510    3.8636   -0.9458 C   0  0  0  0  0  0  0  0  0  0  0  0
   -2.9824    4.9211   -0.1636 F   0  0  0  0  0  0  0  0  0  0  0  0
   -3.4479    3.6731   -1.9802 F   0  0  0  0  0  0  0  0  0  0  0  0
   -1.3152    4.1936   -1.4749 F   0  0  0  0  0  0  0  0  0  0  0  0
   -3.3331    2.3818    0.9486 C   0  0  0  0  0  0  0  0  0  0  0  0
   -3.2770    1.1919    1.6777 C   0  0  0  0  0  0  0  0  0  0  0  0
    4.3030    0.1971    1.8115 C   0  0  0  0  0  0  0  0  0  0  0  0
    5.5734    2.2425    0.7367 H   0  0  0  0  0  0  0  0  0  0  0  0
    4.5886    2.3827   -0.7455 H   0  0  0  0  0  0  0  0  0  0  0  0
    5.5817    0.8917   -0.4718 H   0  0  0  0  0  0  0  0  0  0  0  0
    3.4261   -0.7355   -0.4194 H   0  0  0  0  0  0  0  0  0  0  0  0
    2.9382    0.7930   -1.2193 H   0  0  0  0  0  0  0  0  0  0  0  0
    1.1488    1.1466    0.5065 H   0  0  0  0  0  0  0  0  0  0  0  0
    1.5255   -0.4712    1.2054 H   0  0  0  0  0  0  0  0  0  0  0  0
    1.1056   -1.5246   -1.0283 H   0  0  0  0  0  0  0  0  0  0  0  0
    0.6080    0.0595   -1.6971 H   0  0  0  0  0  0  0  0  0  0  0  0
   -0.6079   -2.7185   -2.1013 H   0  0  0  0  0  0  0  0  0  0  0  0
   -1.8369   -4.8532   -2.0324 H   0  0  0  0  0  0  0  0  0  0  0  0
   -3.3045   -5.3893   -0.1094 H   0  0  0  0  0  0  0  0  0  0  0  0
   -3.4953   -3.8097    1.7866 H   0  0  0  0  0  0  0  0  0  0  0  0
   -0.9555    1.7023   -1.3886 H   0  0  0  0  0  0  0  0  0  0  0  0
   -4.0570    3.1354    1.2321 H   0  0  0  0  0  0  0  0  0  0  0  0
   -3.9344    1.0512    2.5262 H   0  0  0  0  0  0  0  0  0  0  0  0
    3.4582   -0.2330    2.3870 H   0  0  0  0  0  0  0  0  0  0  0  0
    4.9001    0.8019    2.5278 H   0  0  0  0  0  0  0  0  0  0  0  0
    4.9384   -0.6306    1.4243 H   0  0  0  0  0  0  0  0  0  0  0  0
  1  2  1  0
  2 24  1  0
  2  3  1  0
  3  4  1  0
  4  5  1  0
  5  6  1  0
  6  7  1  0
  6 15  1  0
  7  8  1  0
  7 12  2  0
  8  9  2  0
  9 10  1  0
 10 11  2  0
 11 12  1  0
 12 13  1  0
 13 14  1  0
 14 23  1  0
 14 15  2  0
 15 16  1  0
 16 17  2  0
 17 22  1  0
 17 18  1  0
 18 19  1  0
 18 20  1  0
 18 21  1  0
 22 23  2  0
  1 25  1  0
  1 26  1  0
  1 27  1  0
  3 28  1  0
  3 29  1  0
  4 30  1  0
  4 31  1  0
  5 32  1  0
  5 33  1  0
  8 34  1  0
  9 35  1  0
 10 36  1  0
 11 37  1  0
 16 38  1  0
 22 39  1  0
 23 40  1  0
 24 41  1  0
 24 42  1  0
 24 43  1  0
M  END
$$$$
