CCCCC=CC
     RDKit          3D

 21 20  0  0  0  0  0  0  0  0999 V2000
   -2.6369   -0.6538    0.3111 C   0  0  0  0  0  0  0  0  0  0  0  0
   -2.0117    0.7379    0.2166 C   0  0  0  0  0  0  0  0  0  0  0  0
   -0.9686    0.8490   -0.9105 C   0  0  0  0  0  0  0  0  0  0  0  0
    0.3344    0.0818   -0.6311 C   0  0  0  0  0  0  0  0  0  0  0  0
    1.1322    0.6943    0.4958 C   0  0  0  0  0  0  0  0  0  0  0  0
    2.2944    0.1800    0.9304 C   0  0  0  0  0  0  0  0  0  0  0  0
    2.9145   -1.0579    0.3499 C   0  0  0  0  0  0  0  0  0  0  0  0
   -3.4694   -0.6341    1.0456 H   0  0  0  0  0  0  0  0  0  0  0  0
   -3.0439   -0.9663   -0.6739 H   0  0  0  0  0  0  0  0  0  0  0  0
   -1.8915   -1.3987    0.6577 H   0  0  0  0  0  0  0  0  0  0  0  0
   -2.8242    1.4679    0.0104 H   0  0  0  0  0  0  0  0  0  0  0  0
   -1.5640    1.0096    1.1959 H   0  0  0  0  0  0  0  0  0  0  0  0
   -1.4125    0.4729   -1.8581 H   0  0  0  0  0  0  0  0  0  0  0  0
   -0.7277    1.9226   -1.0727 H   0  0  0  0  0  0  0  0  0  0  0  0
    0.9537    0.1050   -1.5536 H   0  0  0  0  0  0  0  0  0  0  0  0
    0.1100   -0.9809   -0.4051 H   0  0  0  0  0  0  0  0  0  0  0  0
    0.7671    1.5982    0.9757 H   0  0  0  0  0  0  0  0  0  0  0  0
    2.8142    0.6823    1.7412 H   0  0  0  0  0  0  0  0  0  0  0  0
    2.2349   -1.9253    0.4851 H   0  0  0  0  0  0  0  0  0  0  0  0
    3.1237   -0.9105   -0.7304 H   0  0  0  0  0  0  0  0  0  0  0  0
    3.8713   -1.2740    0.8696 H   0  0  0  0  0  0  0  0  0  0  0  0
  1  2  1  0
  2  3  1  0
  3  4  1  0
  4  5  1  0
  5  6  2  0
  6  7  1  0
  1  8  1  0
  1  9  1  0
  1 10  1  0
  2 11  1  0
  2 12  1  0
  3 13  1  0
  3 14  1  0
  4 15  1  0
  4 16  1  0
  5 17  1  0
  6 18  1  0
  7 19  1  0
  7 20  1  0
  7 21  1  0
M  END
$$$$
