Sc2nc1ccccc1s2
     RDKit          3D

 15 16  0  0  0  0  0  0  0  0999 V2000
    4.0912   -0.9737    0.1801 S   0  0  0  0  0  0  0  0  0  0  0  0
    2.3338   -0.6873    0.0476 C   0  0  0  0  0  0  0  0  0  0  0  0
    1.6890    0.2935    0.7235 N   0  0  0  0  0  0  0  0  0  0  0  0
    0.3627    0.2833    0.4348 C   0  0  0  0  0  0  0  0  0  0  0  0
   -0.5692    1.1720    0.9737 C   0  0  0  0  0  0  0  0  0  0  0  0
   -1.9163    1.0524    0.5900 C   0  0  0  0  0  0  0  0  0  0  0  0
   -2.3135    0.0532   -0.3212 C   0  0  0  0  0  0  0  0  0  0  0  0
   -1.3674   -0.8352   -0.8569 C   0  0  0  0  0  0  0  0  0  0  0  0
   -0.0396   -0.6959   -0.4609 C   0  0  0  0  0  0  0  0  0  0  0  0
    1.2952   -1.6004   -0.9278 S   0  0  0  0  0  0  0  0  0  0  0  0
    4.3661   -0.0978   -0.8866 H   0  0  0  0  0  0  0  0  0  0  0  0
   -0.2629    1.9391    1.6735 H   0  0  0  0  0  0  0  0  0  0  0  0
   -2.6533    1.7324    0.9972 H   0  0  0  0  0  0  0  0  0  0  0  0
   -3.3532   -0.0299   -0.6098 H   0  0  0  0  0  0  0  0  0  0  0  0
   -1.6627   -1.6057   -1.5572 H   0  0  0  0  0  0  0  0  0  0  0  0
  1  2  1  0
  2  3  2  0
  2 10  1  0
  3  4  1  0
  4  5  2  0
  4  9  1  0
  5  6  1  0
  6  7  2  0
  7  8  1  0
  8  9  2  0
  9 10  1  0
  1 11  1  0
  5 12  1  0
  6 13  1  0
  7 14  1  0
  8 15  1  0
M  END
$$$$
