NC(Nc1ccc(OCC)cc1)=O
     RDKit          3D

 25 25  0  0  0  0  0  0  0  0999 V2000
   -5.0016    1.0293    0.5965 N   0  0  0  0  0  0  0  0  0  0  0  0
   -3.7343    0.7008    0.0293 C   0  0  0  0  0  0  0  0  0  0  0  0
   -2.8178   -0.1284    0.7598 N   0  0  0  0  0  0  0  0  0  0  0  0
   -1.4527   -0.3614    0.3719 C   0  0  0  0  0  0  0  0  0  0  0  0
   -0.6784    0.6440   -0.2329 C   0  0  0  0  0  0  0  0  0  0  0  0
    0.6543    0.4000   -0.5788 C   0  0  0  0  0  0  0  0  0  0  0  0
    1.2413   -0.8514   -0.3094 C   0  0  0  0  0  0  0  0  0  0  0  0
    2.5730   -1.1551   -0.6378 O   0  0  0  0  0  0  0  0  0  0  0  0
    3.5271   -0.2375   -1.1728 C   0  0  0  0  0  0  0  0  0  0  0  0
    4.0445    0.6993   -0.0865 C   0  0  0  0  0  0  0  0  0  0  0  0
    0.4723   -1.8435    0.3090 C   0  0  0  0  0  0  0  0  0  0  0  0
   -0.8594   -1.5994    0.6557 C   0  0  0  0  0  0  0  0  0  0  0  0
   -3.4485    1.1129   -1.1270 O   0  0  0  0  0  0  0  0  0  0  0  0
   -5.2608    0.6904    1.5493 H   0  0  0  0  0  0  0  0  0  0  0  0
   -5.6813    1.6175    0.0652 H   0  0  0  0  0  0  0  0  0  0  0  0
   -3.1952   -0.6629    1.5749 H   0  0  0  0  0  0  0  0  0  0  0  0
   -1.0921    1.6265   -0.4165 H   0  0  0  0  0  0  0  0  0  0  0  0
    1.2155    1.1947   -1.0487 H   0  0  0  0  0  0  0  0  0  0  0  0
    3.0957    0.3346   -2.0212 H   0  0  0  0  0  0  0  0  0  0  0  0
    4.3854   -0.8198   -1.5691 H   0  0  0  0  0  0  0  0  0  0  0  0
    4.5010    0.1082    0.7354 H   0  0  0  0  0  0  0  0  0  0  0  0
    4.8147    1.3755   -0.5133 H   0  0  0  0  0  0  0  0  0  0  0  0
    3.2202    1.3153    0.3275 H   0  0  0  0  0  0  0  0  0  0  0  0
    0.9112   -2.8092    0.5258 H   0  0  0  0  0  0  0  0  0  0  0  0
   -1.4341   -2.3806    1.1373 H   0  0  0  0  0  0  0  0  0  0  0  0
  1  2  1  0
  2  3  1  0
  2 13  2  0
  3  4  1  0
  4 12  2  0
  4  5  1  0
  5  6  2  0
  6  7  1  0
  7 11  2  0
  7  8  1  0
  8  9  1  0
  9 10  1  0
 11 12  1  0
  1 14  1  0
  1 15  1  0
  3 16  1  0
  5 17  1  0
  6 18  1  0
  9 19  1  0
  9 20  1  0
 10 21  1  0
 10 22  1  0
 10 23  1  0
 11 24  1  0
 12 25  1  0
M  END
$$$$
