FC(F)(F)C(Cl)Br
     RDKit          3D

  8  7  0  0  1  0  0  0  0  0999 V2000
   -1.2750   -1.2649   -0.3885 F   0  0  0  0  0  0  0  0  0  0  0  0
   -0.7971   -0.0519    0.0740 C   0  0  0  0  0  0  0  0  0  0  0  0
   -1.4817    0.9675   -0.5632 F   0  0  0  0  0  0  0  0  0  0  0  0
   -1.0234    0.0339    1.4365 F   0  0  0  0  0  0  0  0  0  0  0  0
    0.6973    0.0629   -0.2237 C   0  0  1  0  0  0  0  0  0  0  0  0
    1.3341    1.6286    0.3454 Cl  0  0  0  0  0  0  0  0  0  0  0  0
    1.6837   -1.3678    0.6392 Br  0  0  0  0  0  0  0  0  0  0  0  0
    0.8622   -0.0083   -1.3197 H   0  0  0  0  0  0  0  0  0  0  0  0
  1  2  1  0
  2  5  1  0
  2  4  1  0
  2  3  1  0
  5  6  1  0
  5  7  1  0
  5  8  1  6
M  END
$$$$
