O=C(N(CC)CC)C(Oc1cccc2c1cccc2)C
     RDKit          3D

 41 42  0  0  1  0  0  0  0  0999 V2000
   -1.8395    2.1904    1.7002 O   0  0  0  0  0  0  0  0  0  0  0  0
   -1.7213    1.3731    0.7464 C   0  0  0  0  0  0  0  0  0  0  0  0
   -2.6400    0.2600    0.6512 N   0  0  0  0  0  0  0  0  0  0  0  0
   -4.0187    0.4590    1.1304 C   0  0  0  0  0  0  0  0  0  0  0  0
   -4.1714    0.0131    2.5825 C   0  0  0  0  0  0  0  0  0  0  0  0
   -2.1374   -1.1063    0.4126 C   0  0  0  0  0  0  0  0  0  0  0  0
   -2.9832   -1.8551   -0.6166 C   0  0  0  0  0  0  0  0  0  0  0  0
   -0.6268    1.6160   -0.2657 C   0  0  1  0  0  0  0  0  0  0  0  0
    0.4792    0.7584    0.0230 O   0  0  0  0  0  0  0  0  0  0  0  0
    1.7696    0.8462   -0.5316 C   0  0  0  0  0  0  0  0  0  0  0  0
    2.1869    1.9660   -1.2787 C   0  0  0  0  0  0  0  0  0  0  0  0
    3.4739    2.0228   -1.8161 C   0  0  0  0  0  0  0  0  0  0  0  0
    4.3688    0.9726   -1.6168 C   0  0  0  0  0  0  0  0  0  0  0  0
    3.9832   -0.1484   -0.8702 C   0  0  0  0  0  0  0  0  0  0  0  0
    2.6769   -0.2148   -0.3196 C   0  0  0  0  0  0  0  0  0  0  0  0
    2.3072   -1.3486    0.4294 C   0  0  0  0  0  0  0  0  0  0  0  0
    3.2147   -2.3928    0.6258 C   0  0  0  0  0  0  0  0  0  0  0  0
    4.4979   -2.3219    0.0809 C   0  0  0  0  0  0  0  0  0  0  0  0
    4.8835   -1.2056   -0.6642 C   0  0  0  0  0  0  0  0  0  0  0  0
   -1.1338    1.4053   -1.6981 C   0  0  0  0  0  0  0  0  0  0  0  0
   -4.7372   -0.0966    0.4937 H   0  0  0  0  0  0  0  0  0  0  0  0
   -4.3011    1.5319    1.0504 H   0  0  0  0  0  0  0  0  0  0  0  0
   -5.1894    0.2697    2.9441 H   0  0  0  0  0  0  0  0  0  0  0  0
   -4.0374   -1.0853    2.6672 H   0  0  0  0  0  0  0  0  0  0  0  0
   -3.4252    0.5251    3.2255 H   0  0  0  0  0  0  0  0  0  0  0  0
   -2.1241   -1.6740    1.3665 H   0  0  0  0  0  0  0  0  0  0  0  0
   -1.0956   -1.0904    0.0411 H   0  0  0  0  0  0  0  0  0  0  0  0
   -3.9548   -2.1598   -0.1754 H   0  0  0  0  0  0  0  0  0  0  0  0
   -3.1642   -1.2196   -1.5087 H   0  0  0  0  0  0  0  0  0  0  0  0
   -2.4503   -2.7754   -0.9363 H   0  0  0  0  0  0  0  0  0  0  0  0
   -0.3094    2.6761   -0.1581 H   0  0  0  0  0  0  0  0  0  0  0  0
    1.5308    2.8071   -1.4462 H   0  0  0  0  0  0  0  0  0  0  0  0
    3.7804    2.8888   -2.3887 H   0  0  0  0  0  0  0  0  0  0  0  0
    5.3629    1.0381   -2.0430 H   0  0  0  0  0  0  0  0  0  0  0  0
    1.3201   -1.4334    0.8661 H   0  0  0  0  0  0  0  0  0  0  0  0
    2.9218   -3.2605    1.2029 H   0  0  0  0  0  0  0  0  0  0  0  0
    5.1959   -3.1343    0.2368 H   0  0  0  0  0  0  0  0  0  0  0  0
    5.8840   -1.1683   -1.0789 H   0  0  0  0  0  0  0  0  0  0  0  0
   -2.0801    1.9650   -1.8581 H   0  0  0  0  0  0  0  0  0  0  0  0
   -0.3895    1.7759   -2.4316 H   0  0  0  0  0  0  0  0  0  0  0  0
   -1.3072    0.3305   -1.9048 H   0  0  0  0  0  0  0  0  0  0  0  0
  1  2  2  0
  2  8  1  0
  2  3  1  0
  3  4  1  0
  3  6  1  0
  4  5  1  0
  6  7  1  0
  8 20  1  0
  8  9  1  0
  9 10  1  0
 10 11  2  0
 10 15  1  0
 11 12  1  0
 12 13  2  0
 13 14  1  0
 14 19  1  0
 14 15  2  0
 15 16  1  0
 16 17  2  0
 17 18  1  0
 18 19  2  0
  4 21  1  0
  4 22  1  0
  5 23  1  0
  5 24  1  0
  5 25  1  0
  6 26  1  0
  6 27  1  0
  7 28  1  0
  7 29  1  0
  7 30  1  0
  8 31  1  6
 11 32  1  0
 12 33  1  0
 13 34  1  0
 16 35  1  0
 17 36  1  0
 18 37  1  0
 19 38  1  0
 20 39  1  0
 20 40  1  0
 20 41  1  0
M  END
$$$$
