
     RDKit          3D

 26 27  0  0  0  0  0  0  0  0999 V2000
    0.0785   -1.2440   -1.3835 O   0  0  0  0  0  0  0  0  0  0  0  0
    0.4844   -0.4159   -0.5239 C   0  0  0  0  0  0  0  0  0  0  0  0
    1.9262   -0.3515   -0.2049 C   0  0  0  0  0  0  0  0  0  0  0  0
    2.5705    0.8985   -0.1789 C   0  0  0  0  0  0  0  0  0  0  0  0
    3.9367    0.9873    0.0985 C   0  0  0  0  0  0  0  0  0  0  0  0
    4.6752   -0.1683    0.3537 C   0  0  0  0  0  0  0  0  0  0  0  0
    4.0489   -1.4159    0.3350 C   0  0  0  0  0  0  0  0  0  0  0  0
    2.6798   -1.5190    0.0575 C   0  0  0  0  0  0  0  0  0  0  0  0
    1.8162   -3.4573    0.1378 I   0  0  0  0  0  0  0  0  0  0  0  0
   -0.4394    0.4957    0.0963 N   0  0  0  0  0  0  0  0  0  0  0  0
   -1.8685    0.4002   -0.0295 C   0  0  0  0  0  0  0  0  0  0  0  0
   -2.6378    1.5744   -0.0419 C   0  0  0  0  0  0  0  0  0  0  0  0
   -4.0310    1.5070   -0.1396 C   0  0  0  0  0  0  0  0  0  0  0  0
   -4.6687    0.2659   -0.2096 C   0  0  0  0  0  0  0  0  0  0  0  0
   -3.9144   -0.9096   -0.1734 C   0  0  0  0  0  0  0  0  0  0  0  0
   -2.5207   -0.8465   -0.0767 C   0  0  0  0  0  0  0  0  0  0  0  0
    2.0223    1.8069   -0.3957 H   0  0  0  0  0  0  0  0  0  0  0  0
    4.4243    1.9536    0.1106 H   0  0  0  0  0  0  0  0  0  0  0  0
    5.7336   -0.0974    0.5691 H   0  0  0  0  0  0  0  0  0  0  0  0
    4.6289   -2.3053    0.5450 H   0  0  0  0  0  0  0  0  0  0  0  0
   -0.0557    1.3072    0.6309 H   0  0  0  0  0  0  0  0  0  0  0  0
   -2.1550    2.5421    0.0140 H   0  0  0  0  0  0  0  0  0  0  0  0
   -4.6164    2.4173   -0.1586 H   0  0  0  0  0  0  0  0  0  0  0  0
   -5.7474    0.2149   -0.2827 H   0  0  0  0  0  0  0  0  0  0  0  0
   -4.4107   -1.8708   -0.2106 H   0  0  0  0  0  0  0  0  0  0  0  0
   -1.9599   -1.7693   -0.0118 H   0  0  0  0  0  0  0  0  0  0  0  0
  1  2  2  0
  2  3  1  0
  2 10  1  0
  3  4  2  0
  3  8  1  0
  4  5  1  0
  5  6  2  0
  6  7  1  0
  7  8  2  0
  8  9  1  0
 10 11  1  0
 11 16  1  0
 11 12  2  0
 12 13  1  0
 13 14  2  0
 14 15  1  0
 15 16  2  0
  4 17  1  0
  5 18  1  0
  6 19  1  0
  7 20  1  0
 10 21  1  0
 12 22  1  0
 13 23  1  0
 14 24  1  0
 15 25  1  0
 16 26  1  0
M  END
$$$$
