CCC1NC(=O)NC1(=O)
     RDKit          3D

 17 17  0  0  1  0  0  0  0  0999 V2000
    2.3344    0.1302   -0.3626 C   0  0  0  0  0  0  0  0  0  0  0  0
    1.0958   -0.6773    0.0228 C   0  0  0  0  0  0  0  0  0  0  0  0
   -0.0504    0.2127    0.5312 C   0  0  2  0  0  0  0  0  0  0  0  0
   -1.1212   -0.6182    1.0792 N   0  0  0  0  0  0  0  0  0  0  0  0
   -2.2997   -0.3775    0.3242 C   0  0  0  0  0  0  0  0  0  0  0  0
   -3.3996   -0.9440    0.5558 O   0  0  0  0  0  0  0  0  0  0  0  0
   -2.1141    0.5696   -0.7076 N   0  0  0  0  0  0  0  0  0  0  0  0
   -0.7517    0.9489   -0.5808 C   0  0  0  0  0  0  0  0  0  0  0  0
   -0.2237    1.8407   -1.2958 O   0  0  0  0  0  0  0  0  0  0  0  0
    2.6668    0.7612    0.4890 H   0  0  0  0  0  0  0  0  0  0  0  0
    2.1268    0.7750   -1.2409 H   0  0  0  0  0  0  0  0  0  0  0  0
    3.1588   -0.5640   -0.6300 H   0  0  0  0  0  0  0  0  0  0  0  0
    0.7583   -1.2794   -0.8494 H   0  0  0  0  0  0  0  0  0  0  0  0
    1.3850   -1.3844    0.8307 H   0  0  0  0  0  0  0  0  0  0  0  0
    0.3035    0.9240    1.3088 H   0  0  0  0  0  0  0  0  0  0  0  0
   -1.0429   -1.2594    1.8998 H   0  0  0  0  0  0  0  0  0  0  0  0
   -2.8260    0.9419   -1.3745 H   0  0  0  0  0  0  0  0  0  0  0  0
  1  2  1  0
  2  3  1  0
  3  8  1  0
  3  4  1  0
  4  5  1  0
  5  7  1  0
  5  6  2  0
  7  8  1  0
  8  9  2  0
  1 10  1  0
  1 11  1  0
  1 12  1  0
  2 13  1  0
  2 14  1  0
  3 15  1  1
  4 16  1  0
  7 17  1  0
M  END
$$$$
