
     RDKit          3D

 33 33  0  0  1  0  0  0  0  0999 V2000
   -4.6156   -0.0368   -0.8125 C   0  0  0  0  0  0  0  0  0  0  0  0
   -3.2006    0.0447   -0.2241 C   0  0  0  0  0  0  0  0  0  0  0  0
   -2.1554   -0.3212   -1.2998 C   0  0  0  0  0  0  0  0  0  0  0  0
   -0.7546   -0.3934   -0.7413 C   0  0  0  0  0  0  0  0  0  0  0  0
    0.2140    0.5452   -1.1255 C   0  0  0  0  0  0  0  0  0  0  0  0
    1.5136    0.4705   -0.6153 C   0  0  0  0  0  0  0  0  0  0  0  0
   -0.4030   -1.4107    0.1584 C   0  0  0  0  0  0  0  0  0  0  0  0
    0.8937   -1.4826    0.6738 C   0  0  0  0  0  0  0  0  0  0  0  0
    1.8730   -0.5512    0.2857 C   0  0  0  0  0  0  0  0  0  0  0  0
    3.2665   -0.6447    0.8842 C   0  0  1  0  0  0  0  0  0  0  0  0
    4.3860   -0.4514   -0.1491 C   0  0  0  0  0  0  0  0  0  0  0  0
    3.4172    0.3017    2.0481 C   0  0  0  0  0  0  0  0  0  0  0  0
    3.3869    1.6839    1.8786 O   0  0  0  0  0  0  0  0  0  0  0  0
    3.5749   -0.1652    3.2075 O   0  0  0  0  0  0  0  0  0  0  0  0
   -2.9517    1.4477    0.3507 C   0  0  0  0  0  0  0  0  0  0  0  0
   -4.7452    0.7119   -1.6249 H   0  0  0  0  0  0  0  0  0  0  0  0
   -4.8093   -1.0516   -1.2240 H   0  0  0  0  0  0  0  0  0  0  0  0
   -5.3692    0.1665   -0.0217 H   0  0  0  0  0  0  0  0  0  0  0  0
   -3.1420   -0.6885    0.6096 H   0  0  0  0  0  0  0  0  0  0  0  0
   -2.2069    0.4144   -2.1337 H   0  0  0  0  0  0  0  0  0  0  0  0
   -2.4021   -1.3138   -1.7375 H   0  0  0  0  0  0  0  0  0  0  0  0
   -0.0364    1.3408   -1.8161 H   0  0  0  0  0  0  0  0  0  0  0  0
    2.2306    1.2132   -0.9321 H   0  0  0  0  0  0  0  0  0  0  0  0
   -1.1342   -2.1492    0.4616 H   0  0  0  0  0  0  0  0  0  0  0  0
    1.1337   -2.2712    1.3768 H   0  0  0  0  0  0  0  0  0  0  0  0
    3.4029   -1.6793    1.2730 H   0  0  0  0  0  0  0  0  0  0  0  0
    4.2497   -1.1598   -0.9943 H   0  0  0  0  0  0  0  0  0  0  0  0
    4.4070    0.5822   -0.5528 H   0  0  0  0  0  0  0  0  0  0  0  0
    5.3710   -0.6576    0.3217 H   0  0  0  0  0  0  0  0  0  0  0  0
    3.2784    2.1126    0.9690 H   0  0  0  0  0  0  0  0  0  0  0  0
   -1.9659    1.4889    0.8589 H   0  0  0  0  0  0  0  0  0  0  0  0
   -2.9731    2.2117   -0.4558 H   0  0  0  0  0  0  0  0  0  0  0  0
   -3.7340    1.6923    1.1028 H   0  0  0  0  0  0  0  0  0  0  0  0
  1  2  1  0
  2 15  1  0
  2  3  1  0
  3  4  1  0
  4  5  2  0
  4  7  1  0
  5  6  1  0
  6  9  2  0
  7  8  2  0
  8  9  1  0
  9 10  1  0
 10 11  1  0
 10 12  1  0
 12 13  1  0
 12 14  2  0
  1 16  1  0
  1 17  1  0
  1 18  1  0
  2 19  1  0
  3 20  1  0
  3 21  1  0
  5 22  1  0
  6 23  1  0
  7 24  1  0
  8 25  1  0
 10 26  1  1
 11 27  1  0
 11 28  1  0
 11 29  1  0
 13 30  1  0
 15 31  1  0
 15 32  1  0
 15 33  1  0
M  END
$$$$
