Clc(cc(Cl)c(Cl)c2)c2c1ccccc1
     RDKit          3D

 22 23  0  0  0  0  0  0  0  0999 V2000
    0.4228    2.6823   -0.8841 Cl  0  0  0  0  0  0  0  0  0  0  0  0
    1.3362    1.2897   -0.3109 C   0  0  0  0  0  0  0  0  0  0  0  0
    2.7307    1.3928   -0.2525 C   0  0  0  0  0  0  0  0  0  0  0  0
    3.5023    0.3391    0.2467 C   0  0  0  0  0  0  0  0  0  0  0  0
    5.2511    0.5155    0.3013 Cl  0  0  0  0  0  0  0  0  0  0  0  0
    2.8743   -0.8310    0.7003 C   0  0  0  0  0  0  0  0  0  0  0  0
    3.8075   -2.1770    1.3405 Cl  0  0  0  0  0  0  0  0  0  0  0  0
    1.4809   -0.9392    0.6443 C   0  0  0  0  0  0  0  0  0  0  0  0
    0.6994    0.1103    0.1326 C   0  0  0  0  0  0  0  0  0  0  0  0
   -0.7713   -0.0487    0.0765 C   0  0  0  0  0  0  0  0  0  0  0  0
   -1.4927   -0.3615    1.2414 C   0  0  0  0  0  0  0  0  0  0  0  0
   -2.8799   -0.5295    1.1878 C   0  0  0  0  0  0  0  0  0  0  0  0
   -3.5554   -0.3955   -0.0282 C   0  0  0  0  0  0  0  0  0  0  0  0
   -2.8443   -0.0970   -1.1936 C   0  0  0  0  0  0  0  0  0  0  0  0
   -1.4571    0.0719   -1.1445 C   0  0  0  0  0  0  0  0  0  0  0  0
    3.2167    2.3003   -0.5887 H   0  0  0  0  0  0  0  0  0  0  0  0
    1.0058   -1.8501    0.9889 H   0  0  0  0  0  0  0  0  0  0  0  0
   -0.9822   -0.4663    2.1910 H   0  0  0  0  0  0  0  0  0  0  0  0
   -3.4312   -0.7644    2.0891 H   0  0  0  0  0  0  0  0  0  0  0  0
   -4.6290   -0.5267   -0.0681 H   0  0  0  0  0  0  0  0  0  0  0  0
   -3.3675   -0.0010   -2.1362 H   0  0  0  0  0  0  0  0  0  0  0  0
   -0.9171    0.2864   -2.0585 H   0  0  0  0  0  0  0  0  0  0  0  0
  1  2  1  0
  2  3  2  0
  2  9  1  0
  3  4  1  0
  4  6  2  0
  4  5  1  0
  6  8  1  0
  6  7  1  0
  8  9  2  0
  9 10  1  0
 10 15  1  0
 10 11  2  0
 11 12  1  0
 12 13  2  0
 13 14  1  0
 14 15  2  0
  3 16  1  0
  8 17  1  0
 11 18  1  0
 12 19  1  0
 13 20  1  0
 14 21  1  0
 15 22  1  0
M  END
$$$$
