CN(NC(CCC(O)=O)=O)C
     RDKit          3D

 23 22  0  0  0  0  0  0  0  0999 V2000
   -2.0378    1.1417    0.9330 C   0  0  0  0  0  0  0  0  0  0  0  0
   -1.1276    0.0020    1.0945 N   0  0  0  0  0  0  0  0  0  0  0  0
   -1.3914   -0.9275    0.0692 N   0  0  0  0  0  0  0  0  0  0  0  0
   -0.3634   -1.3335   -0.8419 C   0  0  0  0  0  0  0  0  0  0  0  0
    1.0404   -0.8132   -0.7176 C   0  0  0  0  0  0  0  0  0  0  0  0
    1.1827    0.5317   -1.4342 C   0  0  0  0  0  0  0  0  0  0  0  0
    2.5793    1.0551   -1.3047 C   0  0  0  0  0  0  0  0  0  0  0  0
    3.6400    0.3502   -1.8656 O   0  0  0  0  0  0  0  0  0  0  0  0
    2.7952    2.1372   -0.6960 O   0  0  0  0  0  0  0  0  0  0  0  0
   -0.6483   -2.1194   -1.7846 O   0  0  0  0  0  0  0  0  0  0  0  0
   -1.3556   -0.6567    2.3854 C   0  0  0  0  0  0  0  0  0  0  0  0
   -1.8279    1.9088    1.7089 H   0  0  0  0  0  0  0  0  0  0  0  0
   -1.8772    1.6136   -0.0598 H   0  0  0  0  0  0  0  0  0  0  0  0
   -3.1020    0.8248    1.0099 H   0  0  0  0  0  0  0  0  0  0  0  0
   -2.3489   -1.3374   -0.0374 H   0  0  0  0  0  0  0  0  0  0  0  0
    1.7432   -1.5515   -1.1630 H   0  0  0  0  0  0  0  0  0  0  0  0
    1.3057   -0.7026    0.3562 H   0  0  0  0  0  0  0  0  0  0  0  0
    0.4691    1.2646   -0.9988 H   0  0  0  0  0  0  0  0  0  0  0  0
    0.9443    0.4126   -2.5132 H   0  0  0  0  0  0  0  0  0  0  0  0
    4.5902    0.6927   -1.7881 H   0  0  0  0  0  0  0  0  0  0  0  0
   -1.1392    0.0484    3.2165 H   0  0  0  0  0  0  0  0  0  0  0  0
   -0.6667   -1.5223    2.4900 H   0  0  0  0  0  0  0  0  0  0  0  0
   -2.4040   -1.0193    2.4760 H   0  0  0  0  0  0  0  0  0  0  0  0
  1  2  1  0
  2 11  1  0
  2  3  1  0
  3  4  1  0
  4  5  1  0
  4 10  2  0
  5  6  1  0
  6  7  1  0
  7  8  1  0
  7  9  2  0
  1 12  1  0
  1 13  1  0
  1 14  1  0
  3 15  1  0
  5 16  1  0
  5 17  1  0
  6 18  1  0
  6 19  1  0
  8 20  1  0
 11 21  1  0
 11 22  1  0
 11 23  1  0
M  END
$$$$
