Clc(cccc2Cl)c2c1c(Cl)cccc1Cl
     RDKit          3D

 22 23  0  0  0  0  0  0  0  0999 V2000
   -0.6877   -2.7472    0.1250 Cl  0  0  0  0  0  0  0  0  0  0  0  0
   -1.4778   -1.1741    0.1563 C   0  0  0  0  0  0  0  0  0  0  0  0
   -2.8710   -1.1244    0.2762 C   0  0  0  0  0  0  0  0  0  0  0  0
   -3.5317    0.1050    0.3044 C   0  0  0  0  0  0  0  0  0  0  0  0
   -2.8045    1.2931    0.2130 C   0  0  0  0  0  0  0  0  0  0  0  0
   -1.4109    1.2599    0.0927 C   0  0  0  0  0  0  0  0  0  0  0  0
   -0.5358    2.7835   -0.0195 Cl  0  0  0  0  0  0  0  0  0  0  0  0
   -0.7365    0.0219    0.0635 C   0  0  0  0  0  0  0  0  0  0  0  0
    0.7365   -0.0219   -0.0635 C   0  0  0  0  0  0  0  0  0  0  0  0
    1.3390   -0.0717   -1.3375 C   0  0  0  0  0  0  0  0  0  0  0  0
    0.3722   -0.0836   -2.8089 Cl  0  0  0  0  0  0  0  0  0  0  0  0
    2.7331   -0.1130   -1.4494 C   0  0  0  0  0  0  0  0  0  0  0  0
    3.5317   -0.1050   -0.3044 C   0  0  0  0  0  0  0  0  0  0  0  0
    2.9425   -0.0558    0.9601 C   0  0  0  0  0  0  0  0  0  0  0  0
    1.5498   -0.0142    1.0885 C   0  0  0  0  0  0  0  0  0  0  0  0
    0.8513    0.0472    2.7034 Cl  0  0  0  0  0  0  0  0  0  0  0  0
   -3.4439   -2.0402    0.3477 H   0  0  0  0  0  0  0  0  0  0  0  0
   -4.6096    0.1370    0.3974 H   0  0  0  0  0  0  0  0  0  0  0  0
   -3.3262    2.2415    0.2359 H   0  0  0  0  0  0  0  0  0  0  0  0
    3.1996   -0.1513   -2.4256 H   0  0  0  0  0  0  0  0  0  0  0  0
    4.6096   -0.1370   -0.3974 H   0  0  0  0  0  0  0  0  0  0  0  0
    3.5705   -0.0500    1.8420 H   0  0  0  0  0  0  0  0  0  0  0  0
  1  2  1  0
  2  3  2  0
  2  8  1  0
  3  4  1  0
  4  5  2  0
  5  6  1  0
  6  7  1  0
  6  8  2  0
  8  9  1  0
  9 15  1  0
  9 10  2  0
 10 11  1  0
 10 12  1  0
 12 13  2  0
 13 14  1  0
 14 15  2  0
 15 16  1  0
  3 17  1  0
  4 18  1  0
  5 19  1  0
 12 20  1  0
 13 21  1  0
 14 22  1  0
M  END
$$$$
