CC(C)(C)OC
     RDKit          3D

 18 17  0  0  0  0  0  0  0  0999 V2000
   -0.5537    1.4390    0.1739 C   0  0  0  0  0  0  0  0  0  0  0  0
   -0.2717   -0.0368   -0.1861 C   0  0  0  0  0  0  0  0  0  0  0  0
   -0.3198   -0.9210    1.0850 C   0  0  0  0  0  0  0  0  0  0  0  0
   -1.3848   -0.5147   -1.1345 C   0  0  0  0  0  0  0  0  0  0  0  0
    0.9511   -0.1628   -0.9124 O   0  0  0  0  0  0  0  0  0  0  0  0
    2.1131   -0.0045   -0.1211 C   0  0  0  0  0  0  0  0  0  0  0  0
    0.1090    1.7981    0.9875 H   0  0  0  0  0  0  0  0  0  0  0  0
   -1.5995    1.5631    0.5298 H   0  0  0  0  0  0  0  0  0  0  0  0
   -0.4049    2.0867   -0.7165 H   0  0  0  0  0  0  0  0  0  0  0  0
   -0.0388   -1.9671    0.8375 H   0  0  0  0  0  0  0  0  0  0  0  0
    0.3701   -0.5409    1.8679 H   0  0  0  0  0  0  0  0  0  0  0  0
   -1.3420   -0.9242    1.5217 H   0  0  0  0  0  0  0  0  0  0  0  0
   -1.3936    0.0999   -2.0607 H   0  0  0  0  0  0  0  0  0  0  0  0
   -2.3848   -0.4402   -0.6541 H   0  0  0  0  0  0  0  0  0  0  0  0
   -1.2133   -1.5734   -1.4266 H   0  0  0  0  0  0  0  0  0  0  0  0
    2.0804    0.8978    0.5219 H   0  0  0  0  0  0  0  0  0  0  0  0
    2.9818    0.1154   -0.8002 H   0  0  0  0  0  0  0  0  0  0  0  0
    2.3015   -0.9143    0.4870 H   0  0  0  0  0  0  0  0  0  0  0  0
  1  2  1  0
  2  3  1  0
  2  4  1  0
  2  5  1  0
  5  6  1  0
  1  7  1  0
  1  8  1  0
  1  9  1  0
  3 10  1  0
  3 11  1  0
  3 12  1  0
  4 13  1  0
  4 14  1  0
  4 15  1  0
  6 16  1  0
  6 17  1  0
  6 18  1  0
M  END
$$$$
