CCC1CCCCC1
     RDKit          3D

 24 24  0  0  0  0  0  0  0  0999 V2000
   -2.6491   -0.3574    0.6706 C   0  0  0  0  0  0  0  0  0  0  0  0
   -2.0164    0.3931   -0.5050 C   0  0  0  0  0  0  0  0  0  0  0  0
   -0.4702    0.3696   -0.5421 C   0  0  0  0  0  0  0  0  0  0  0  0
    0.1009   -1.0538   -0.7100 C   0  0  0  0  0  0  0  0  0  0  0  0
    1.6290   -1.0111   -0.8450 C   0  0  0  0  0  0  0  0  0  0  0  0
    2.2691   -0.3042    0.3574 C   0  0  0  0  0  0  0  0  0  0  0  0
    1.6944    1.1068    0.5422 C   0  0  0  0  0  0  0  0  0  0  0  0
    0.1664    1.0662    0.6785 C   0  0  0  0  0  0  0  0  0  0  0  0
   -3.7542   -0.2765    0.5992 H   0  0  0  0  0  0  0  0  0  0  0  0
   -2.3401    0.0835    1.6399 H   0  0  0  0  0  0  0  0  0  0  0  0
   -2.3870   -1.4345    0.6456 H   0  0  0  0  0  0  0  0  0  0  0  0
   -2.3593    1.4503   -0.4722 H   0  0  0  0  0  0  0  0  0  0  0  0
   -2.4054   -0.0436   -1.4507 H   0  0  0  0  0  0  0  0  0  0  0  0
   -0.1791    0.9526   -1.4458 H   0  0  0  0  0  0  0  0  0  0  0  0
   -0.1590   -1.6849    0.1666 H   0  0  0  0  0  0  0  0  0  0  0  0
   -0.3292   -1.5270   -1.6193 H   0  0  0  0  0  0  0  0  0  0  0  0
    1.9079   -0.4809   -1.7822 H   0  0  0  0  0  0  0  0  0  0  0  0
    2.0207   -2.0490   -0.9107 H   0  0  0  0  0  0  0  0  0  0  0  0
    2.0927   -0.9021    1.2786 H   0  0  0  0  0  0  0  0  0  0  0  0
    3.3669   -0.2350    0.2000 H   0  0  0  0  0  0  0  0  0  0  0  0
    2.1323    1.5638    1.4557 H   0  0  0  0  0  0  0  0  0  0  0  0
    1.9766    1.7420   -0.3262 H   0  0  0  0  0  0  0  0  0  0  0  0
   -0.2169    2.1064    0.7605 H   0  0  0  0  0  0  0  0  0  0  0  0
   -0.0908    0.5259    1.6147 H   0  0  0  0  0  0  0  0  0  0  0  0
  1  2  1  0
  2  3  1  0
  3  4  1  0
  3  8  1  0
  4  5  1  0
  5  6  1  0
  6  7  1  0
  7  8  1  0
  1  9  1  0
  1 10  1  0
  1 11  1  0
  2 12  1  0
  2 13  1  0
  3 14  1  0
  4 15  1  0
  4 16  1  0
  5 17  1  0
  5 18  1  0
  6 19  1  0
  6 20  1  0
  7 21  1  0
  7 22  1  0
  8 23  1  0
  8 24  1  0
M  END
$$$$
