Oc1c(I)cc(C#N)cc1I
     RDKit          3D

 14 14  0  0  0  0  0  0  0  0999 V2000
   -2.7793    0.1796   -0.0924 O   0  0  0  0  0  0  0  0  0  0  0  0
   -1.3879    0.0781   -0.0473 C   0  0  0  0  0  0  0  0  0  0  0  0
   -0.5681    1.2177    0.0944 C   0  0  0  0  0  0  0  0  0  0  0  0
   -1.3576    3.1782    0.2514 I   0  0  0  0  0  0  0  0  0  0  0  0
    0.8239    1.0726    0.1354 C   0  0  0  0  0  0  0  0  0  0  0  0
    1.4067   -0.1955    0.0368 C   0  0  0  0  0  0  0  0  0  0  0  0
    2.8387   -0.3368    0.0797 C   0  0  0  0  0  0  0  0  0  0  0  0
    3.9898   -0.4503    0.1142 N   0  0  0  0  0  0  0  0  0  0  0  0
    0.5950   -1.3258   -0.1037 C   0  0  0  0  0  0  0  0  0  0  0  0
   -0.7964   -1.1914   -0.1457 C   0  0  0  0  0  0  0  0  0  0  0  0
   -1.9859   -2.9271   -0.3592 I   0  0  0  0  0  0  0  0  0  0  0  0
   -3.2702    1.0612   -0.0272 H   0  0  0  0  0  0  0  0  0  0  0  0
    1.4505    1.9498    0.2443 H   0  0  0  0  0  0  0  0  0  0  0  0
    1.0408   -2.3103   -0.1806 H   0  0  0  0  0  0  0  0  0  0  0  0
  1  2  1  0
  2 10  2  0
  2  3  1  0
  3  4  1  0
  3  5  2  0
  5  6  1  0
  6  9  2  0
  6  7  1  0
  7  8  3  0
  9 10  1  0
 10 11  1  0
  1 12  1  0
  5 13  1  0
  9 14  1  0
M  END
$$$$
