Brc1cc(C#N)cc(Br)c1O
     RDKit          3D

 14 14  0  0  0  0  0  0  0  0999 V2000
   -0.9669    3.0547    0.6439 Br  0  0  0  0  0  0  0  0  0  0  0  0
   -0.4388    1.2529    0.2599 C   0  0  0  0  0  0  0  0  0  0  0  0
    0.9238    0.9363    0.3190 C   0  0  0  0  0  0  0  0  0  0  0  0
    1.3597   -0.3653    0.0470 C   0  0  0  0  0  0  0  0  0  0  0  0
    2.7622   -0.6842    0.1095 C   0  0  0  0  0  0  0  0  0  0  0  0
    3.8895   -0.9405    0.1597 N   0  0  0  0  0  0  0  0  0  0  0  0
    0.4299   -1.3560   -0.2858 C   0  0  0  0  0  0  0  0  0  0  0  0
   -0.9334   -1.0488   -0.3472 C   0  0  0  0  0  0  0  0  0  0  0  0
   -2.1797   -2.4271   -0.8054 Br  0  0  0  0  0  0  0  0  0  0  0  0
   -1.3774    0.2551   -0.0755 C   0  0  0  0  0  0  0  0  0  0  0  0
   -2.7439    0.5326   -0.1444 O   0  0  0  0  0  0  0  0  0  0  0  0
    1.6418    1.7058    0.5770 H   0  0  0  0  0  0  0  0  0  0  0  0
    0.7620   -2.3655   -0.4973 H   0  0  0  0  0  0  0  0  0  0  0  0
   -3.1287    1.4500    0.0396 H   0  0  0  0  0  0  0  0  0  0  0  0
  1  2  1  0
  2  3  2  0
  2 10  1  0
  3  4  1  0
  4  7  2  0
  4  5  1  0
  5  6  3  0
  7  8  1  0
  8  9  1  0
  8 10  2  0
 10 11  1  0
  3 12  1  0
  7 13  1  0
 11 14  1  0
M  END
$$$$
