O=C(N(OC)C)Nc1ccc(Cl)cc1
     RDKit          3D

 25 25  0  0  0  0  0  0  0  0999 V2000
    0.6664   -0.9053   -1.3649 O   0  0  0  0  0  0  0  0  0  0  0  0
    0.9163   -0.5030   -0.1961 C   0  0  0  0  0  0  0  0  0  0  0  0
    2.1728   -0.8539    0.4124 N   0  0  0  0  0  0  0  0  0  0  0  0
    3.0745   -1.5878   -0.2974 O   0  0  0  0  0  0  0  0  0  0  0  0
    3.9606   -0.6748   -0.8982 C   0  0  0  0  0  0  0  0  0  0  0  0
    2.4299   -0.5942    1.8283 C   0  0  0  0  0  0  0  0  0  0  0  0
   -0.0327    0.3290    0.4943 N   0  0  0  0  0  0  0  0  0  0  0  0
   -1.4138    0.4531    0.1126 C   0  0  0  0  0  0  0  0  0  0  0  0
   -2.0869    1.6632    0.3441 C   0  0  0  0  0  0  0  0  0  0  0  0
   -3.4355    1.8007    0.0019 C   0  0  0  0  0  0  0  0  0  0  0  0
   -4.1290    0.7253   -0.5617 C   0  0  0  0  0  0  0  0  0  0  0  0
   -5.8218    0.8981   -0.9877 Cl  0  0  0  0  0  0  0  0  0  0  0  0
   -3.4737   -0.4912   -0.7755 C   0  0  0  0  0  0  0  0  0  0  0  0
   -2.1246   -0.6313   -0.4350 C   0  0  0  0  0  0  0  0  0  0  0  0
    4.7077   -1.2407   -1.4915 H   0  0  0  0  0  0  0  0  0  0  0  0
    3.4202    0.0088   -1.5897 H   0  0  0  0  0  0  0  0  0  0  0  0
    4.5079   -0.0871   -0.1284 H   0  0  0  0  0  0  0  0  0  0  0  0
    2.5280    0.4981    1.9995 H   0  0  0  0  0  0  0  0  0  0  0  0
    3.3758   -1.0841    2.1425 H   0  0  0  0  0  0  0  0  0  0  0  0
    1.6011   -1.0003    2.4461 H   0  0  0  0  0  0  0  0  0  0  0  0
    0.3171    0.9551    1.2533 H   0  0  0  0  0  0  0  0  0  0  0  0
   -1.5620    2.5032    0.7816 H   0  0  0  0  0  0  0  0  0  0  0  0
   -3.9403    2.7423    0.1771 H   0  0  0  0  0  0  0  0  0  0  0  0
   -4.0105   -1.3314   -1.1974 H   0  0  0  0  0  0  0  0  0  0  0  0
   -1.6476   -1.5918   -0.5775 H   0  0  0  0  0  0  0  0  0  0  0  0
  1  2  2  0
  2  7  1  0
  2  3  1  0
  3  6  1  0
  3  4  1  0
  4  5  1  0
  7  8  1  0
  8 14  2  0
  8  9  1  0
  9 10  2  0
 10 11  1  0
 11 13  2  0
 11 12  1  0
 13 14  1  0
  5 15  1  0
  5 16  1  0
  5 17  1  0
  6 18  1  0
  6 19  1  0
  6 20  1  0
  7 21  1  0
  9 22  1  0
 10 23  1  0
 13 24  1  0
 14 25  1  0
M  END
$$$$
