CC(OC(C(c1ccc(Br)cc1)(c2ccc(Br)cc2)O)=O)C
     RDKit          3D

 38 39  0  0  0  0  0  0  0  0999 V2000
   -3.2180    2.6247    1.7124 C   0  0  0  0  0  0  0  0  0  0  0  0
   -2.9842    1.4089    0.8178 C   0  0  0  0  0  0  0  0  0  0  0  0
   -1.6541    0.9356    1.0225 O   0  0  0  0  0  0  0  0  0  0  0  0
   -1.2081   -0.3241    0.5967 C   0  0  0  0  0  0  0  0  0  0  0  0
    0.2593   -0.6877    0.7715 C   0  0  0  0  0  0  0  0  0  0  0  0
    0.6094   -1.9417   -0.0367 C   0  0  0  0  0  0  0  0  0  0  0  0
    1.1302   -3.1000    0.5831 C   0  0  0  0  0  0  0  0  0  0  0  0
    1.4588   -4.2288   -0.1750 C   0  0  0  0  0  0  0  0  0  0  0  0
    1.2778   -4.2229   -1.5603 C   0  0  0  0  0  0  0  0  0  0  0  0
    1.7363   -5.7627   -2.5953 Br  0  0  0  0  0  0  0  0  0  0  0  0
    0.7662   -3.0846   -2.1908 C   0  0  0  0  0  0  0  0  0  0  0  0
    0.4367   -1.9523   -1.4386 C   0  0  0  0  0  0  0  0  0  0  0  0
    1.1965    0.4415    0.3189 C   0  0  0  0  0  0  0  0  0  0  0  0
    0.8319    1.3570   -0.6955 C   0  0  0  0  0  0  0  0  0  0  0  0
    1.7207    2.3558   -1.1053 C   0  0  0  0  0  0  0  0  0  0  0  0
    2.9966    2.4411   -0.5358 C   0  0  0  0  0  0  0  0  0  0  0  0
    4.2127    3.8016   -1.1050 Br  0  0  0  0  0  0  0  0  0  0  0  0
    3.3893    1.5171    0.4367 C   0  0  0  0  0  0  0  0  0  0  0  0
    2.4996    0.5224    0.8571 C   0  0  0  0  0  0  0  0  0  0  0  0
    0.4575   -0.9373    2.1473 O   0  0  0  0  0  0  0  0  0  0  0  0
   -2.0347   -1.1773    0.1638 O   0  0  0  0  0  0  0  0  0  0  0  0
   -3.1924    1.7785   -0.6539 C   0  0  0  0  0  0  0  0  0  0  0  0
   -3.0741    2.3432    2.7767 H   0  0  0  0  0  0  0  0  0  0  0  0
   -4.2577    2.9970    1.5887 H   0  0  0  0  0  0  0  0  0  0  0  0
   -2.5027    3.4376    1.4607 H   0  0  0  0  0  0  0  0  0  0  0  0
   -3.7148    0.6202    1.1082 H   0  0  0  0  0  0  0  0  0  0  0  0
    1.2880   -3.1419    1.6514 H   0  0  0  0  0  0  0  0  0  0  0  0
    1.8581   -5.1076    0.3160 H   0  0  0  0  0  0  0  0  0  0  0  0
    0.6222   -3.0736   -3.2663 H   0  0  0  0  0  0  0  0  0  0  0  0
    0.0369   -1.0842   -1.9505 H   0  0  0  0  0  0  0  0  0  0  0  0
   -0.1345    1.2973   -1.1840 H   0  0  0  0  0  0  0  0  0  0  0  0
    1.4195    3.0582   -1.8735 H   0  0  0  0  0  0  0  0  0  0  0  0
    4.3790    1.5728    0.8736 H   0  0  0  0  0  0  0  0  0  0  0  0
    2.8381   -0.1984    1.5935 H   0  0  0  0  0  0  0  0  0  0  0  0
    0.2925   -0.0918    2.6443 H   0  0  0  0  0  0  0  0  0  0  0  0
   -4.2269    2.1512   -0.8114 H   0  0  0  0  0  0  0  0  0  0  0  0
   -2.4697    2.5670   -0.9611 H   0  0  0  0  0  0  0  0  0  0  0  0
   -3.0417    0.8880   -1.3017 H   0  0  0  0  0  0  0  0  0  0  0  0
  1  2  1  0
  2 22  1  0
  2  3  1  0
  3  4  1  0
  4  5  1  0
  4 21  2  0
  5  6  1  0
  5 13  1  0
  5 20  1  0
  6 12  1  0
  6  7  2  0
  7  8  1  0
  8  9  2  0
  9 11  1  0
  9 10  1  0
 11 12  2  0
 13 19  1  0
 13 14  2  0
 14 15  1  0
 15 16  2  0
 16 18  1  0
 16 17  1  0
 18 19  2  0
  1 23  1  0
  1 24  1  0
  1 25  1  0
  2 26  1  0
  7 27  1  0
  8 28  1  0
 11 29  1  0
 12 30  1  0
 14 31  1  0
 15 32  1  0
 18 33  1  0
 19 34  1  0
 20 35  1  0
 22 36  1  0
 22 37  1  0
 22 38  1  0
M  END
$$$$
