Clc(c(Cl)c(Cl)c(Cl)c2Cl)c2c1ccccc1
     RDKit          3D

 22 23  0  0  0  0  0  0  0  0999 V2000
    0.5632   -2.6520    0.5975 Cl  0  0  0  0  0  0  0  0  0  0  0  0
    1.4227   -1.1757    0.1413 C   0  0  0  0  0  0  0  0  0  0  0  0
    2.8278   -1.1722    0.0994 C   0  0  0  0  0  0  0  0  0  0  0  0
    3.7258   -2.6455    0.4749 Cl  0  0  0  0  0  0  0  0  0  0  0  0
    3.5193    0.0038   -0.2377 C   0  0  0  0  0  0  0  0  0  0  0  0
    5.2842    0.0057   -0.2887 Cl  0  0  0  0  0  0  0  0  0  0  0  0
    2.8070    1.1783   -0.5342 C   0  0  0  0  0  0  0  0  0  0  0  0
    3.6786    2.6535   -0.9608 Cl  0  0  0  0  0  0  0  0  0  0  0  0
    1.4018    1.1788   -0.4948 C   0  0  0  0  0  0  0  0  0  0  0  0
    0.5142    2.6531   -0.9005 Cl  0  0  0  0  0  0  0  0  0  0  0  0
    0.7051    0.0008   -0.1563 C   0  0  0  0  0  0  0  0  0  0  0  0
   -0.7729   -0.0008   -0.1136 C   0  0  0  0  0  0  0  0  0  0  0  0
   -1.5080   -0.6551   -1.1148 C   0  0  0  0  0  0  0  0  0  0  0  0
   -2.9057   -0.6557   -1.0725 C   0  0  0  0  0  0  0  0  0  0  0  0
   -3.5753   -0.0039   -0.0327 C   0  0  0  0  0  0  0  0  0  0  0  0
   -2.8482    0.6495    0.9668 C   0  0  0  0  0  0  0  0  0  0  0  0
   -1.4504    0.6519    0.9284 C   0  0  0  0  0  0  0  0  0  0  0  0
   -0.9984   -1.1613   -1.9256 H   0  0  0  0  0  0  0  0  0  0  0  0
   -3.4698   -1.1609   -1.8458 H   0  0  0  0  0  0  0  0  0  0  0  0
   -4.6572   -0.0051   -0.0014 H   0  0  0  0  0  0  0  0  0  0  0  0
   -3.3678    1.1535    1.7714 H   0  0  0  0  0  0  0  0  0  0  0  0
   -0.8959    1.1592    1.7084 H   0  0  0  0  0  0  0  0  0  0  0  0
  1  2  1  0
  2 11  2  0
  2  3  1  0
  3  4  1  0
  3  5  2  0
  5  7  1  0
  5  6  1  0
  7  9  2  0
  7  8  1  0
  9 11  1  0
  9 10  1  0
 11 12  1  0
 12 17  1  0
 12 13  2  0
 13 14  1  0
 14 15  2  0
 15 16  1  0
 16 17  2  0
 13 18  1  0
 14 19  1  0
 15 20  1  0
 16 21  1  0
 17 22  1  0
M  END
$$$$
