c1(c(cc6)ccc3ccc4ccc5)c3c4c5c2c1c6ccc2
     RDKit          3D

 34 39  0  0  0  0  0  0  0  0999 V2000
   -0.8744    0.7534    0.0140 C   0  0  0  0  0  0  0  0  0  0  0  0
   -1.8119    1.8147    0.0165 C   0  0  0  0  0  0  0  0  0  0  0  0
   -3.1806    1.5351    0.1107 C   0  0  0  0  0  0  0  0  0  0  0  0
   -3.6252    0.2170    0.2022 C   0  0  0  0  0  0  0  0  0  0  0  0
   -1.3663    3.1405   -0.0754 C   0  0  0  0  0  0  0  0  0  0  0  0
   -0.0029    3.4215   -0.1694 C   0  0  0  0  0  0  0  0  0  0  0  0
    0.9364    2.3811   -0.1730 C   0  0  0  0  0  0  0  0  0  0  0  0
    2.3042    2.6655   -0.2675 C   0  0  0  0  0  0  0  0  0  0  0  0
    3.2395    1.6317   -0.2712 C   0  0  0  0  0  0  0  0  0  0  0  0
    2.8232    0.2959   -0.1805 C   0  0  0  0  0  0  0  0  0  0  0  0
    3.7707   -0.7321   -0.1852 C   0  0  0  0  0  0  0  0  0  0  0  0
    3.3625   -2.0581   -0.0955 C   0  0  0  0  0  0  0  0  0  0  0  0
    2.0082   -2.3795   -0.0000 C   0  0  0  0  0  0  0  0  0  0  0  0
    0.5009    1.0369   -0.0808 C   0  0  0  0  0  0  0  0  0  0  0  0
    1.4425   -0.0151   -0.0840 C   0  0  0  0  0  0  0  0  0  0  0  0
    1.0142   -1.3695    0.0083 C   0  0  0  0  0  0  0  0  0  0  0  0
   -0.3826   -1.6573    0.1046 C   0  0  0  0  0  0  0  0  0  0  0  0
   -1.3176   -0.5839    0.1064 C   0  0  0  0  0  0  0  0  0  0  0  0
   -2.7088   -0.8442    0.2010 C   0  0  0  0  0  0  0  0  0  0  0  0
   -3.1669   -2.1617    0.2932 C   0  0  0  0  0  0  0  0  0  0  0  0
   -2.2618   -3.2172    0.2923 C   0  0  0  0  0  0  0  0  0  0  0  0
   -0.8905   -2.9769    0.1999 C   0  0  0  0  0  0  0  0  0  0  0  0
   -3.9089    2.3376    0.1137 H   0  0  0  0  0  0  0  0  0  0  0  0
   -4.6897    0.0264    0.2742 H   0  0  0  0  0  0  0  0  0  0  0  0
   -2.0736    3.9615   -0.0745 H   0  0  0  0  0  0  0  0  0  0  0  0
    0.3177    4.4543   -0.2394 H   0  0  0  0  0  0  0  0  0  0  0  0
    2.6513    3.6896   -0.3386 H   0  0  0  0  0  0  0  0  0  0  0  0
    4.2924    1.8775   -0.3453 H   0  0  0  0  0  0  0  0  0  0  0  0
    4.8289   -0.5101   -0.2584 H   0  0  0  0  0  0  0  0  0  0  0  0
    4.1035   -2.8475   -0.0999 H   0  0  0  0  0  0  0  0  0  0  0  0
    1.7761   -3.4287    0.0656 H   0  0  0  0  0  0  0  0  0  0  0  0
   -4.2266   -2.3763    0.3661 H   0  0  0  0  0  0  0  0  0  0  0  0
   -2.6258   -4.2343    0.3641 H   0  0  0  0  0  0  0  0  0  0  0  0
   -0.2578   -3.8478    0.2059 H   0  0  0  0  0  0  0  0  0  0  0  0
  1 14  1  0
  1 18  2  0
  1  2  1  0
  2  3  2  0
  2  5  1  0
  3  4  1  0
  4 19  2  0
  5  6  2  0
  6  7  1  0
  7 14  2  0
  7  8  1  0
  8  9  2  0
  9 10  1  0
 10 11  1  0
 10 15  2  0
 11 12  2  0
 12 13  1  0
 13 16  2  0
 14 15  1  0
 15 16  1  0
 16 17  1  0
 17 22  2  0
 17 18  1  0
 18 19  1  0
 19 20  1  0
 20 21  2  0
 21 22  1  0
  3 23  1  0
  4 24  1  0
  5 25  1  0
  6 26  1  0
  8 27  1  0
  9 28  1  0
 11 29  1  0
 12 30  1  0
 13 31  1  0
 20 32  1  0
 21 33  1  0
 22 34  1  0
M  END
$$$$
