c14cccc2cccc(c3c5c(cccc45)ccc3)c12
     RDKit          3D

 32 36  0  0  0  0  0  0  0  0999 V2000
    0.8367   -1.1538   -0.1052 C   0  0  0  0  0  0  0  0  0  0  0  0
    1.7171   -2.2624   -0.2086 C   0  0  0  0  0  0  0  0  0  0  0  0
    3.0980   -2.0907   -0.2395 C   0  0  0  0  0  0  0  0  0  0  0  0
    3.6495   -0.8209   -0.1693 C   0  0  0  0  0  0  0  0  0  0  0  0
    2.8213    0.2999   -0.0666 C   0  0  0  0  0  0  0  0  0  0  0  0
    3.3995    1.5702    0.0028 C   0  0  0  0  0  0  0  0  0  0  0  0
    2.5974    2.6960    0.1051 C   0  0  0  0  0  0  0  0  0  0  0  0
    1.2113    2.5737    0.1395 C   0  0  0  0  0  0  0  0  0  0  0  0
    0.5796    1.3043    0.0717 C   0  0  0  0  0  0  0  0  0  0  0  0
   -0.8367    1.1538    0.1052 C   0  0  0  0  0  0  0  0  0  0  0  0
   -1.4053   -0.1494    0.0332 C   0  0  0  0  0  0  0  0  0  0  0  0
   -2.8213   -0.2999    0.0666 C   0  0  0  0  0  0  0  0  0  0  0  0
   -3.3995   -1.5702   -0.0028 C   0  0  0  0  0  0  0  0  0  0  0  0
   -2.5974   -2.6960   -0.1050 C   0  0  0  0  0  0  0  0  0  0  0  0
   -1.2113   -2.5737   -0.1395 C   0  0  0  0  0  0  0  0  0  0  0  0
   -0.5796   -1.3043   -0.0718 C   0  0  0  0  0  0  0  0  0  0  0  0
   -3.6495    0.8209    0.1693 C   0  0  0  0  0  0  0  0  0  0  0  0
   -3.0980    2.0907    0.2395 C   0  0  0  0  0  0  0  0  0  0  0  0
   -1.7171    2.2624    0.2086 C   0  0  0  0  0  0  0  0  0  0  0  0
    1.4053    0.1494   -0.0332 C   0  0  0  0  0  0  0  0  0  0  0  0
    1.3783   -3.2814   -0.2682 H   0  0  0  0  0  0  0  0  0  0  0  0
    3.7473   -2.9536   -0.3189 H   0  0  0  0  0  0  0  0  0  0  0  0
    4.7280   -0.7147   -0.1954 H   0  0  0  0  0  0  0  0  0  0  0  0
    4.4761    1.6930   -0.0220 H   0  0  0  0  0  0  0  0  0  0  0  0
    3.0538    3.6765    0.1584 H   0  0  0  0  0  0  0  0  0  0  0  0
    0.6691    3.4990    0.2200 H   0  0  0  0  0  0  0  0  0  0  0  0
   -4.4761   -1.6930    0.0221 H   0  0  0  0  0  0  0  0  0  0  0  0
   -3.0538   -3.6765   -0.1583 H   0  0  0  0  0  0  0  0  0  0  0  0
   -0.6691   -3.4990   -0.2199 H   0  0  0  0  0  0  0  0  0  0  0  0
   -4.7280    0.7147    0.1954 H   0  0  0  0  0  0  0  0  0  0  0  0
   -3.7473    2.9536    0.3189 H   0  0  0  0  0  0  0  0  0  0  0  0
   -1.3783    3.2814    0.2681 H   0  0  0  0  0  0  0  0  0  0  0  0
  1 20  1  0
  1 16  1  0
  1  2  2  0
  2  3  1  0
  3  4  2  0
  4  5  1  0
  5 20  2  0
  5  6  1  0
  6  7  2  0
  7  8  1  0
  8  9  2  0
  9 20  1  0
  9 10  1  0
 10 19  2  0
 10 11  1  0
 11 12  1  0
 11 16  2  0
 12 17  1  0
 12 13  2  0
 13 14  1  0
 14 15  2  0
 15 16  1  0
 17 18  2  0
 18 19  1  0
  2 21  1  0
  3 22  1  0
  4 23  1  0
  6 24  1  0
  7 25  1  0
  8 26  1  0
 13 27  1  0
 14 28  1  0
 15 29  1  0
 17 30  1  0
 18 31  1  0
 19 32  1  0
M  END
$$$$
