Clc1cc(Cl)c(Cl)c2nsnc12
     RDKit          3D

 13 14  0  0  0  0  0  0  0  0999 V2000
    0.1971    3.1636   -0.5013 Cl  0  0  0  0  0  0  0  0  0  0  0  0
   -0.0398    1.4433   -0.2333 C   0  0  0  0  0  0  0  0  0  0  0  0
   -1.3377    0.9161   -0.1948 C   0  0  0  0  0  0  0  0  0  0  0  0
   -1.5528   -0.4566    0.0181 C   0  0  0  0  0  0  0  0  0  0  0  0
   -3.2060   -1.0552    0.0555 Cl  0  0  0  0  0  0  0  0  0  0  0  0
   -0.4610   -1.3292    0.1972 C   0  0  0  0  0  0  0  0  0  0  0  0
   -0.7105   -3.0525    0.4652 Cl  0  0  0  0  0  0  0  0  0  0  0  0
    0.8375   -0.8070    0.1595 C   0  0  0  0  0  0  0  0  0  0  0  0
    1.9472   -1.5722    0.3219 N   0  0  0  0  0  0  0  0  0  0  0  0
    3.1249   -0.4207    0.1788 S   0  0  0  0  0  0  0  0  0  0  0  0
    2.3378    1.0100   -0.0791 N   0  0  0  0  0  0  0  0  0  0  0  0
    1.0487    0.5847   -0.0566 C   0  0  0  0  0  0  0  0  0  0  0  0
   -2.1855    1.5758   -0.3310 H   0  0  0  0  0  0  0  0  0  0  0  0
  1  2  1  0
  2  3  2  0
  2 12  1  0
  3  4  1  0
  4  6  2  0
  4  5  1  0
  6  8  1  0
  6  7  1  0
  8  9  2  0
  8 12  1  0
  9 10  1  0
 10 11  1  0
 11 12  2  0
  3 13  1  0
M  END
$$$$
