O=C(SCC)N(CC(C)C)CC(C)C
     RDKit          3D

 37 36  0  0  0  0  0  0  0  0999 V2000
    1.6345   -1.5549   -1.5939 O   0  0  0  0  0  0  0  0  0  0  0  0
    1.1563   -0.4393   -1.2547 C   0  0  0  0  0  0  0  0  0  0  0  0
    1.9728    1.0490   -1.8466 S   0  0  0  0  0  0  0  0  0  0  0  0
    3.2433    1.0231   -0.5396 C   0  0  0  0  0  0  0  0  0  0  0  0
    4.0798    2.2914   -0.6048 C   0  0  0  0  0  0  0  0  0  0  0  0
   -0.0105   -0.3762   -0.4040 N   0  0  0  0  0  0  0  0  0  0  0  0
   -0.9683    0.7402   -0.5402 C   0  0  0  0  0  0  0  0  0  0  0  0
   -1.2224    1.4793    0.7918 C   0  0  0  0  0  0  0  0  0  0  0  0
    0.0823    1.9969    1.4100 C   0  0  0  0  0  0  0  0  0  0  0  0
   -2.1974    2.6424    0.5698 C   0  0  0  0  0  0  0  0  0  0  0  0
   -0.3143   -1.5154    0.4847 C   0  0  0  0  0  0  0  0  0  0  0  0
   -1.5383   -2.3280    0.0085 C   0  0  0  0  0  0  0  0  0  0  0  0
   -1.3392   -2.8762   -1.4107 C   0  0  0  0  0  0  0  0  0  0  0  0
   -1.8172   -3.4792    0.9825 C   0  0  0  0  0  0  0  0  0  0  0  0
    3.9014    0.1398   -0.6835 H   0  0  0  0  0  0  0  0  0  0  0  0
    2.7651    0.9546    0.4590 H   0  0  0  0  0  0  0  0  0  0  0  0
    4.8550    2.2682    0.1898 H   0  0  0  0  0  0  0  0  0  0  0  0
    3.4345    3.1821   -0.4492 H   0  0  0  0  0  0  0  0  0  0  0  0
    4.5815    2.3688   -1.5926 H   0  0  0  0  0  0  0  0  0  0  0  0
   -0.6206    1.4736   -1.2970 H   0  0  0  0  0  0  0  0  0  0  0  0
   -1.9298    0.3489   -0.9332 H   0  0  0  0  0  0  0  0  0  0  0  0
   -1.7037    0.7832    1.5115 H   0  0  0  0  0  0  0  0  0  0  0  0
   -0.1323    2.5804    2.3306 H   0  0  0  0  0  0  0  0  0  0  0  0
    0.7331    1.1461    1.6983 H   0  0  0  0  0  0  0  0  0  0  0  0
    0.6266    2.6472    0.6919 H   0  0  0  0  0  0  0  0  0  0  0  0
   -3.1525    2.2661    0.1449 H   0  0  0  0  0  0  0  0  0  0  0  0
   -2.4248    3.1427    1.5354 H   0  0  0  0  0  0  0  0  0  0  0  0
   -1.7642    3.3911   -0.1281 H   0  0  0  0  0  0  0  0  0  0  0  0
    0.5668   -2.1895    0.5695 H   0  0  0  0  0  0  0  0  0  0  0  0
   -0.4970   -1.1418    1.5133 H   0  0  0  0  0  0  0  0  0  0  0  0
   -2.4352   -1.6725    0.0104 H   0  0  0  0  0  0  0  0  0  0  0  0
   -0.4380   -3.5244   -1.4575 H   0  0  0  0  0  0  0  0  0  0  0  0
   -1.2248   -2.0433   -2.1358 H   0  0  0  0  0  0  0  0  0  0  0  0
   -2.2245   -3.4722   -1.7191 H   0  0  0  0  0  0  0  0  0  0  0  0
   -0.9569   -4.1819    1.0173 H   0  0  0  0  0  0  0  0  0  0  0  0
   -2.7240   -4.0384    0.6671 H   0  0  0  0  0  0  0  0  0  0  0  0
   -1.9972   -3.0817    2.0043 H   0  0  0  0  0  0  0  0  0  0  0  0
  1  2  2  0
  2  6  1  0
  2  3  1  0
  3  4  1  0
  4  5  1  0
  6  7  1  0
  6 11  1  0
  7  8  1  0
  8 10  1  0
  8  9  1  0
 11 12  1  0
 12 14  1  0
 12 13  1  0
  4 15  1  0
  4 16  1  0
  5 17  1  0
  5 18  1  0
  5 19  1  0
  7 20  1  0
  7 21  1  0
  8 22  1  0
  9 23  1  0
  9 24  1  0
  9 25  1  0
 10 26  1  0
 10 27  1  0
 10 28  1  0
 11 29  1  0
 11 30  1  0
 12 31  1  0
 13 32  1  0
 13 33  1  0
 13 34  1  0
 14 35  1  0
 14 36  1  0
 14 37  1  0
M  END
$$$$
