CCCCCCCCOC(N)=O
     RDKit          3D

 31 30  0  0  0  0  0  0  0  0999 V2000
    4.5374    1.0583   -0.5236 C   0  0  0  0  0  0  0  0  0  0  0  0
    3.1233    0.6297   -0.1430 C   0  0  0  0  0  0  0  0  0  0  0  0
    2.9351   -0.8822   -0.3273 C   0  0  0  0  0  0  0  0  0  0  0  0
    1.5674   -1.3753    0.1744 C   0  0  0  0  0  0  0  0  0  0  0  0
    0.3799   -0.8635   -0.6727 C   0  0  0  0  0  0  0  0  0  0  0  0
   -0.3972    0.2827    0.0039 C   0  0  0  0  0  0  0  0  0  0  0  0
   -1.3340   -0.1911    1.1329 C   0  0  0  0  0  0  0  0  0  0  0  0
   -2.6350   -0.8179    0.6200 C   0  0  0  0  0  0  0  0  0  0  0  0
   -3.3812    0.1407   -0.1318 O   0  0  0  0  0  0  0  0  0  0  0  0
   -4.6628    0.5848    0.2128 C   0  0  0  0  0  0  0  0  0  0  0  0
   -5.3161    1.5436   -0.6143 N   0  0  0  0  0  0  0  0  0  0  0  0
   -5.2457    0.1514    1.2433 O   0  0  0  0  0  0  0  0  0  0  0  0
    4.7437    0.8070   -1.5859 H   0  0  0  0  0  0  0  0  0  0  0  0
    5.2828    0.5511    0.1252 H   0  0  0  0  0  0  0  0  0  0  0  0
    4.6413    2.1560   -0.3916 H   0  0  0  0  0  0  0  0  0  0  0  0
    2.4051    1.1812   -0.7862 H   0  0  0  0  0  0  0  0  0  0  0  0
    2.9375    0.9064    0.9177 H   0  0  0  0  0  0  0  0  0  0  0  0
    3.0605   -1.1511   -1.3993 H   0  0  0  0  0  0  0  0  0  0  0  0
    3.7237   -1.4165    0.2469 H   0  0  0  0  0  0  0  0  0  0  0  0
    1.5756   -2.4861    0.1239 H   0  0  0  0  0  0  0  0  0  0  0  0
    1.4506   -1.1112    1.2474 H   0  0  0  0  0  0  0  0  0  0  0  0
    0.7392   -0.5123   -1.6646 H   0  0  0  0  0  0  0  0  0  0  0  0
   -0.3076   -1.7082   -0.8858 H   0  0  0  0  0  0  0  0  0  0  0  0
    0.3206    1.0178    0.4252 H   0  0  0  0  0  0  0  0  0  0  0  0
   -0.9855    0.8261   -0.7665 H   0  0  0  0  0  0  0  0  0  0  0  0
   -0.8132   -0.9197    1.7894 H   0  0  0  0  0  0  0  0  0  0  0  0
   -1.5987    0.6854    1.7635 H   0  0  0  0  0  0  0  0  0  0  0  0
   -2.4196   -1.6935   -0.0250 H   0  0  0  0  0  0  0  0  0  0  0  0
   -3.2139   -1.1912    1.4922 H   0  0  0  0  0  0  0  0  0  0  0  0
   -4.8409    1.9097   -1.4687 H   0  0  0  0  0  0  0  0  0  0  0  0
   -6.2720    1.8879   -0.3736 H   0  0  0  0  0  0  0  0  0  0  0  0
  1  2  1  0
  2  3  1  0
  3  4  1  0
  4  5  1  0
  5  6  1  0
  6  7  1  0
  7  8  1  0
  8  9  1  0
  9 10  1  0
 10 11  1  0
 10 12  2  0
  1 13  1  0
  1 14  1  0
  1 15  1  0
  2 16  1  0
  2 17  1  0
  3 18  1  0
  3 19  1  0
  4 20  1  0
  4 21  1  0
  5 22  1  0
  5 23  1  0
  6 24  1  0
  6 25  1  0
  7 26  1  0
  7 27  1  0
  8 28  1  0
  8 29  1  0
 11 30  1  0
 11 31  1  0
M  END
$$$$
