CN2C(ON(C2=O)c1ccc(c(Cl)c1)Cl)=O
     RDKit          3D

 22 23  0  0  0  0  0  0  0  0999 V2000
   -4.0041    0.3599   -0.2292 C   0  0  0  0  0  0  0  0  0  0  0  0
   -2.6653   -0.1358    0.0731 N   0  0  0  0  0  0  0  0  0  0  0  0
   -2.2983   -1.2737    0.6962 C   0  0  0  0  0  0  0  0  0  0  0  0
   -0.9912   -1.3856    0.7642 O   0  0  0  0  0  0  0  0  0  0  0  0
   -0.4504   -0.3397    0.2055 N   0  0  0  0  0  0  0  0  0  0  0  0
   -1.4788    0.4244   -0.2293 C   0  0  0  0  0  0  0  0  0  0  0  0
   -1.3542    1.5008   -0.8730 O   0  0  0  0  0  0  0  0  0  0  0  0
    0.9683   -0.1332    0.0737 C   0  0  0  0  0  0  0  0  0  0  0  0
    1.8325   -1.2388    0.1023 C   0  0  0  0  0  0  0  0  0  0  0  0
    3.2135   -1.0634   -0.0153 C   0  0  0  0  0  0  0  0  0  0  0  0
    3.7526    0.2193   -0.1523 C   0  0  0  0  0  0  0  0  0  0  0  0
    2.9000    1.3352   -0.1646 C   0  0  0  0  0  0  0  0  0  0  0  0
    3.5389    2.9670   -0.3134 Cl  0  0  0  0  0  0  0  0  0  0  0  0
    1.5158    1.1572   -0.0476 C   0  0  0  0  0  0  0  0  0  0  0  0
    5.4958    0.4002   -0.2968 Cl  0  0  0  0  0  0  0  0  0  0  0  0
   -3.1038   -2.1282    1.1515 O   0  0  0  0  0  0  0  0  0  0  0  0
   -4.7763   -0.3429    0.1489 H   0  0  0  0  0  0  0  0  0  0  0  0
   -4.1229    0.4664   -1.3278 H   0  0  0  0  0  0  0  0  0  0  0  0
   -4.1525    1.3489    0.2526 H   0  0  0  0  0  0  0  0  0  0  0  0
    1.4351   -2.2407    0.2049 H   0  0  0  0  0  0  0  0  0  0  0  0
    3.8649   -1.9280    0.0005 H   0  0  0  0  0  0  0  0  0  0  0  0
    0.8805    2.0310   -0.0243 H   0  0  0  0  0  0  0  0  0  0  0  0
  1  2  1  0
  2  6  1  0
  2  3  1  0
  3 16  2  0
  3  4  1  0
  4  5  1  0
  5  8  1  0
  5  6  1  0
  6  7  2  0
  8  9  2  0
  8 14  1  0
  9 10  1  0
 10 11  2  0
 11 12  1  0
 11 15  1  0
 12 14  2  0
 12 13  1  0
  1 17  1  0
  1 18  1  0
  1 19  1  0
  9 20  1  0
 10 21  1  0
 14 22  1  0
M  END
$$$$
