CCCC1CCCC1
     RDKit          3D

 24 24  0  0  0  0  0  0  0  0999 V2000
    2.8220    0.5128    0.2947 C   0  0  0  0  0  0  0  0  0  0  0  0
    2.1699   -0.8359    0.5952 C   0  0  0  0  0  0  0  0  0  0  0  0
    0.9113   -1.1071   -0.2497 C   0  0  0  0  0  0  0  0  0  0  0  0
   -0.3611   -0.4080    0.2825 C   0  0  0  0  0  0  0  0  0  0  0  0
   -1.6238   -1.0063   -0.3302 C   0  0  0  0  0  0  0  0  0  0  0  0
   -2.6632    0.0939   -0.2449 C   0  0  0  0  0  0  0  0  0  0  0  0
   -1.8911    1.3970   -0.3899 C   0  0  0  0  0  0  0  0  0  0  0  0
   -0.4348    1.0891   -0.0417 C   0  0  0  0  0  0  0  0  0  0  0  0
    3.8158    0.5582    0.7881 H   0  0  0  0  0  0  0  0  0  0  0  0
    2.2100    1.3455    0.6929 H   0  0  0  0  0  0  0  0  0  0  0  0
    2.9670    0.6443   -0.7986 H   0  0  0  0  0  0  0  0  0  0  0  0
    1.9353   -0.9062    1.6793 H   0  0  0  0  0  0  0  0  0  0  0  0
    2.9154   -1.6289    0.3677 H   0  0  0  0  0  0  0  0  0  0  0  0
    1.0911   -0.8437   -1.3153 H   0  0  0  0  0  0  0  0  0  0  0  0
    0.7344   -2.2053   -0.2208 H   0  0  0  0  0  0  0  0  0  0  0  0
   -0.4247   -0.5414    1.3868 H   0  0  0  0  0  0  0  0  0  0  0  0
   -1.9523   -1.9150    0.2198 H   0  0  0  0  0  0  0  0  0  0  0  0
   -1.4567   -1.2649   -1.4003 H   0  0  0  0  0  0  0  0  0  0  0  0
   -3.1577    0.0605    0.7513 H   0  0  0  0  0  0  0  0  0  0  0  0
   -3.4330   -0.0149   -1.0394 H   0  0  0  0  0  0  0  0  0  0  0  0
   -1.9603    1.7594   -1.4395 H   0  0  0  0  0  0  0  0  0  0  0  0
   -2.3082    2.1758    0.2853 H   0  0  0  0  0  0  0  0  0  0  0  0
    0.2127    1.3510   -0.9074 H   0  0  0  0  0  0  0  0  0  0  0  0
   -0.1182    1.6900    0.8384 H   0  0  0  0  0  0  0  0  0  0  0  0
  1  2  1  0
  2  3  1  0
  3  4  1  0
  4  5  1  0
  4  8  1  0
  5  6  1  0
  6  7  1  0
  7  8  1  0
  1  9  1  0
  1 10  1  0
  1 11  1  0
  2 12  1  0
  2 13  1  0
  3 14  1  0
  3 15  1  0
  4 16  1  0
  5 17  1  0
  5 18  1  0
  6 19  1  0
  6 20  1  0
  7 21  1  0
  7 22  1  0
  8 23  1  0
  8 24  1  0
M  END
$$$$
