Clc1cccc(c2cc(Cl)ccc2)c1
     RDKit          3D

 22 23  0  0  0  0  0  0  0  0999 V2000
    4.0943    2.0002   -0.7825 Cl  0  0  0  0  0  0  0  0  0  0  0  0
    3.0014    0.6999   -0.3443 C   0  0  0  0  0  0  0  0  0  0  0  0
    3.5113   -0.5578   -0.0098 C   0  0  0  0  0  0  0  0  0  0  0  0
    2.6419   -1.5948    0.3348 C   0  0  0  0  0  0  0  0  0  0  0  0
    1.2608   -1.3790    0.3460 C   0  0  0  0  0  0  0  0  0  0  0  0
    0.7335   -0.1173    0.0119 C   0  0  0  0  0  0  0  0  0  0  0  0
   -0.7336    0.1148    0.0238 C   0  0  0  0  0  0  0  0  0  0  0  0
   -1.6170   -0.8640   -0.4698 C   0  0  0  0  0  0  0  0  0  0  0  0
   -2.9989   -0.6432   -0.4576 C   0  0  0  0  0  0  0  0  0  0  0  0
   -4.0886   -1.8684   -1.0811 Cl  0  0  0  0  0  0  0  0  0  0  0  0
   -3.5114    0.5551    0.0474 C   0  0  0  0  0  0  0  0  0  0  0  0
   -2.6446    1.5330    0.5398 C   0  0  0  0  0  0  0  0  0  0  0  0
   -1.2635    1.3171    0.5289 C   0  0  0  0  0  0  0  0  0  0  0  0
    1.6195    0.9208   -0.3337 C   0  0  0  0  0  0  0  0  0  0  0  0
    4.5797   -0.7324   -0.0164 H   0  0  0  0  0  0  0  0  0  0  0  0
    3.0387   -2.5670    0.5973 H   0  0  0  0  0  0  0  0  0  0  0  0
    0.6070   -2.1929    0.6331 H   0  0  0  0  0  0  0  0  0  0  0  0
   -1.2352   -1.7905   -0.8804 H   0  0  0  0  0  0  0  0  0  0  0  0
   -4.5798    0.7294    0.0589 H   0  0  0  0  0  0  0  0  0  0  0  0
   -3.0434    2.4588    0.9340 H   0  0  0  0  0  0  0  0  0  0  0  0
   -0.6118    2.0822    0.9316 H   0  0  0  0  0  0  0  0  0  0  0  0
    1.2397    1.8960   -0.6121 H   0  0  0  0  0  0  0  0  0  0  0  0
  1  2  1  0
  2  3  2  0
  2 14  1  0
  3  4  1  0
  4  5  2  0
  5  6  1  0
  6  7  1  0
  6 14  2  0
  7 13  1  0
  7  8  2  0
  8  9  1  0
  9 11  2  0
  9 10  1  0
 11 12  1  0
 12 13  2  0
  3 15  1  0
  4 16  1  0
  5 17  1  0
  8 18  1  0
 11 19  1  0
 12 20  1  0
 13 21  1  0
 14 22  1  0
M  END
$$$$
