Clc(cccc2)c2c1ccccc1
     RDKit          3D

 22 23  0  0  0  0  0  0  0  0999 V2000
    0.8041   -2.6784   -0.6840 Cl  0  0  0  0  0  0  0  0  0  0  0  0
    1.5294   -1.1039   -0.3729 C   0  0  0  0  0  0  0  0  0  0  0  0
    2.9248   -0.9960   -0.4273 C   0  0  0  0  0  0  0  0  0  0  0  0
    3.5515    0.2169   -0.1334 C   0  0  0  0  0  0  0  0  0  0  0  0
    2.7882    1.3293    0.2236 C   0  0  0  0  0  0  0  0  0  0  0  0
    1.3957    1.2338    0.2815 C   0  0  0  0  0  0  0  0  0  0  0  0
    0.7500    0.0226   -0.0238 C   0  0  0  0  0  0  0  0  0  0  0  0
   -0.7279   -0.0397    0.0327 C   0  0  0  0  0  0  0  0  0  0  0  0
   -1.4057    0.3262    1.2083 C   0  0  0  0  0  0  0  0  0  0  0  0
   -2.8026    0.2847    1.2586 C   0  0  0  0  0  0  0  0  0  0  0  0
   -3.5326   -0.1132    0.1355 C   0  0  0  0  0  0  0  0  0  0  0  0
   -2.8673   -0.4666   -1.0415 C   0  0  0  0  0  0  0  0  0  0  0  0
   -1.4706   -0.4267   -1.0962 C   0  0  0  0  0  0  0  0  0  0  0  0
    3.5269   -1.8569   -0.6891 H   0  0  0  0  0  0  0  0  0  0  0  0
    4.6304    0.2926   -0.1764 H   0  0  0  0  0  0  0  0  0  0  0  0
    3.2759    2.2676    0.4543 H   0  0  0  0  0  0  0  0  0  0  0  0
    0.8185    2.1097    0.5522 H   0  0  0  0  0  0  0  0  0  0  0  0
   -0.8525    0.6345    2.0870 H   0  0  0  0  0  0  0  0  0  0  0  0
   -3.3191    0.5617    2.1685 H   0  0  0  0  0  0  0  0  0  0  0  0
   -4.6138   -0.1439    0.1759 H   0  0  0  0  0  0  0  0  0  0  0  0
   -3.4340   -0.7672   -1.9132 H   0  0  0  0  0  0  0  0  0  0  0  0
   -0.9693   -0.6870   -2.0203 H   0  0  0  0  0  0  0  0  0  0  0  0
  1  2  1  0
  2  3  2  0
  2  7  1  0
  3  4  1  0
  4  5  2  0
  5  6  1  0
  6  7  2  0
  7  8  1  0
  8 13  1  0
  8  9  2  0
  9 10  1  0
 10 11  2  0
 11 12  1  0
 12 13  2  0
  3 14  1  0
  4 15  1  0
  5 16  1  0
  6 17  1  0
  9 18  1  0
 10 19  1  0
 11 20  1  0
 12 21  1  0
 13 22  1  0
M  END
$$$$
