c12cccc(C=C3)c1c3ccc2
     RDKit          3D

 20 22  0  0  0  0  0  0  0  0999 V2000
    1.0868    0.4894    0.0089 C   0  0  0  0  0  0  0  0  0  0  0  0
    1.1602    1.8934    0.0931 C   0  0  0  0  0  0  0  0  0  0  0  0
   -0.0372    2.6547    0.1625 C   0  0  0  0  0  0  0  0  0  0  0  0
   -1.3030    2.0186    0.1482 C   0  0  0  0  0  0  0  0  0  0  0  0
   -1.3320    0.6255    0.0638 C   0  0  0  0  0  0  0  0  0  0  0  0
   -2.4233   -0.3550    0.0250 C   0  0  0  0  0  0  0  0  0  0  0  0
   -1.8715   -1.5790   -0.0602 C   0  0  0  0  0  0  0  0  0  0  0  0
   -0.1744   -0.0786   -0.0014 C   0  0  0  0  0  0  0  0  0  0  0  0
   -0.4135   -1.4115   -0.0781 C   0  0  0  0  0  0  0  0  0  0  0  0
    0.6499   -2.3126   -0.1535 C   0  0  0  0  0  0  0  0  0  0  0  0
    1.9652   -1.7865   -0.1467 C   0  0  0  0  0  0  0  0  0  0  0  0
    2.1878   -0.3857   -0.0656 C   0  0  0  0  0  0  0  0  0  0  0  0
    2.1201    2.3940    0.1051 H   0  0  0  0  0  0  0  0  0  0  0  0
    0.0179    3.7335    0.2272 H   0  0  0  0  0  0  0  0  0  0  0  0
   -2.2181    2.5935    0.2008 H   0  0  0  0  0  0  0  0  0  0  0  0
   -3.4837   -0.1433    0.0584 H   0  0  0  0  0  0  0  0  0  0  0  0
   -2.4152   -2.5130   -0.1067 H   0  0  0  0  0  0  0  0  0  0  0  0
    0.4747   -3.3786   -0.2152 H   0  0  0  0  0  0  0  0  0  0  0  0
    2.8104   -2.4599   -0.2040 H   0  0  0  0  0  0  0  0  0  0  0  0
    3.1990    0.0012   -0.0615 H   0  0  0  0  0  0  0  0  0  0  0  0
  1  8  1  0
  1 12  1  0
  1  2  2  0
  2  3  1  0
  3  4  2  0
  4  5  1  0
  5  8  2  0
  5  6  1  0
  6  7  2  0
  7  9  1  0
  8  9  1  0
  9 10  2  0
 10 11  1  0
 11 12  2  0
  2 13  1  0
  3 14  1  0
  4 15  1  0
  6 16  1  0
  7 17  1  0
 10 18  1  0
 11 19  1  0
 12 20  1  0
M  END
$$$$
