NC(OCCCCCC)=O
     RDKit          3D

 25 24  0  0  0  0  0  0  0  0999 V2000
   -4.0083   -1.1957    0.0206 N   0  0  0  0  0  0  0  0  0  0  0  0
   -3.1368   -0.2121   -0.5297 C   0  0  0  0  0  0  0  0  0  0  0  0
   -2.6135    0.7856    0.3006 O   0  0  0  0  0  0  0  0  0  0  0  0
   -1.6890    1.7813   -0.1384 C   0  0  0  0  0  0  0  0  0  0  0  0
   -0.2433    1.3511    0.1339 C   0  0  0  0  0  0  0  0  0  0  0  0
    0.1938    0.1722   -0.7499 C   0  0  0  0  0  0  0  0  0  0  0  0
    1.7005   -0.1135   -0.6509 C   0  0  0  0  0  0  0  0  0  0  0  0
    2.1026   -0.6950    0.7123 C   0  0  0  0  0  0  0  0  0  0  0  0
    3.5775   -1.0862    0.7292 C   0  0  0  0  0  0  0  0  0  0  0  0
   -2.8523   -0.2477   -1.7575 O   0  0  0  0  0  0  0  0  0  0  0  0
   -4.4094   -1.9465   -0.5842 H   0  0  0  0  0  0  0  0  0  0  0  0
   -4.2502   -1.1732    1.0358 H   0  0  0  0  0  0  0  0  0  0  0  0
   -1.8856    2.7082    0.4408 H   0  0  0  0  0  0  0  0  0  0  0  0
   -1.8383    2.0296   -1.2121 H   0  0  0  0  0  0  0  0  0  0  0  0
    0.4202    2.2218   -0.0610 H   0  0  0  0  0  0  0  0  0  0  0  0
   -0.1500    1.0784    1.2066 H   0  0  0  0  0  0  0  0  0  0  0  0
   -0.0394    0.4103   -1.8108 H   0  0  0  0  0  0  0  0  0  0  0  0
   -0.3733   -0.7424   -0.4728 H   0  0  0  0  0  0  0  0  0  0  0  0
    1.9630   -0.8463   -1.4454 H   0  0  0  0  0  0  0  0  0  0  0  0
    2.2748    0.8180   -0.8498 H   0  0  0  0  0  0  0  0  0  0  0  0
    1.4902   -1.5962    0.9336 H   0  0  0  0  0  0  0  0  0  0  0  0
    1.9302    0.0554    1.5125 H   0  0  0  0  0  0  0  0  0  0  0  0
    3.8428   -1.4938    1.7274 H   0  0  0  0  0  0  0  0  0  0  0  0
    3.7797   -1.8649   -0.0368 H   0  0  0  0  0  0  0  0  0  0  0  0
    4.2142   -0.1985    0.5271 H   0  0  0  0  0  0  0  0  0  0  0  0
  1  2  1  0
  2 10  2  0
  2  3  1  0
  3  4  1  0
  4  5  1  0
  5  6  1  0
  6  7  1  0
  7  8  1  0
  8  9  1  0
  1 11  1  0
  1 12  1  0
  4 13  1  0
  4 14  1  0
  5 15  1  0
  5 16  1  0
  6 17  1  0
  6 18  1  0
  7 19  1  0
  7 20  1  0
  8 21  1  0
  8 22  1  0
  9 23  1  0
  9 24  1  0
  9 25  1  0
M  END
$$$$
