Clc(c(Cl)cc(Cl)c2Cl)c2c1c(Cl)c(Cl)cc(Cl)c1Cl
     RDKit          3D

 22 23  0  0  0  0  0  0  0  0999 V2000
    0.7444   -2.4557    1.1610 Cl  0  0  0  0  0  0  0  0  0  0  0  0
    1.5066   -0.9481    0.6456 C   0  0  0  0  0  0  0  0  0  0  0  0
    2.8927   -0.7768    0.7974 C   0  0  0  0  0  0  0  0  0  0  0  0
    3.8989   -2.0398    1.4955 Cl  0  0  0  0  0  0  0  0  0  0  0  0
    3.4985    0.4141    0.3909 C   0  0  0  0  0  0  0  0  0  0  0  0
    2.7378    1.4433   -0.1683 C   0  0  0  0  0  0  0  0  0  0  0  0
    3.5528    2.9219   -0.6628 Cl  0  0  0  0  0  0  0  0  0  0  0  0
    1.3508    1.2863   -0.3263 C   0  0  0  0  0  0  0  0  0  0  0  0
    0.3924    2.5902   -1.0339 Cl  0  0  0  0  0  0  0  0  0  0  0  0
    0.7309    0.0865    0.0817 C   0  0  0  0  0  0  0  0  0  0  0  0
   -0.7309   -0.0865   -0.0817 C   0  0  0  0  0  0  0  0  0  0  0  0
   -1.2487   -0.6401   -1.2714 C   0  0  0  0  0  0  0  0  0  0  0  0
   -0.1620   -1.1310   -2.5742 Cl  0  0  0  0  0  0  0  0  0  0  0  0
   -2.6364   -0.8013   -1.4193 C   0  0  0  0  0  0  0  0  0  0  0  0
   -3.3262   -1.4870   -2.8852 Cl  0  0  0  0  0  0  0  0  0  0  0  0
   -3.4985   -0.4141   -0.3909 C   0  0  0  0  0  0  0  0  0  0  0  0
   -2.9941    0.1348    0.7901 C   0  0  0  0  0  0  0  0  0  0  0  0
   -4.1256    0.6050    2.0525 Cl  0  0  0  0  0  0  0  0  0  0  0  0
   -1.6087    0.3019    0.9521 C   0  0  0  0  0  0  0  0  0  0  0  0
   -0.9749    0.9965    2.4472 Cl  0  0  0  0  0  0  0  0  0  0  0  0
    4.5674    0.5406    0.5104 H   0  0  0  0  0  0  0  0  0  0  0  0
   -4.5674   -0.5406   -0.5104 H   0  0  0  0  0  0  0  0  0  0  0  0
  1  2  1  0
  2 10  2  0
  2  3  1  0
  3  4  1  0
  3  5  2  0
  5  6  1  0
  6  8  2  0
  6  7  1  0
  8 10  1  0
  8  9  1  0
 10 11  1  0
 11 19  1  0
 11 12  2  0
 12 13  1  0
 12 14  1  0
 14 16  2  0
 14 15  1  0
 16 17  1  0
 17 19  2  0
 17 18  1  0
 19 20  1  0
  5 21  1  0
 16 22  1  0
M  END
$$$$
