O=C(NC1CCCCCCC1)N(C)C
     RDKit          3D

 36 36  0  0  0  0  0  0  0  0999 V2000
    3.2783    1.9513   -1.7561 O   0  0  0  0  0  0  0  0  0  0  0  0
    2.6327    1.0636   -1.1345 C   0  0  0  0  0  0  0  0  0  0  0  0
    1.3849    0.6054   -1.6732 N   0  0  0  0  0  0  0  0  0  0  0  0
    0.2236    0.3120   -0.8275 C   0  0  0  0  0  0  0  0  0  0  0  0
   -0.6982    1.5846   -0.7880 C   0  0  0  0  0  0  0  0  0  0  0  0
   -2.0414    1.1747   -0.1798 C   0  0  0  0  0  0  0  0  0  0  0  0
   -3.3746    0.7689    0.4238 C   0  0  0  0  0  0  0  0  0  0  0  0
   -3.4627   -0.7953    0.3845 C   0  0  0  0  0  0  0  0  0  0  0  0
   -2.1538   -1.5416    0.8101 C   0  0  0  0  0  0  0  0  0  0  0  0
   -1.1312   -1.9668   -0.3007 C   0  0  0  0  0  0  0  0  0  0  0  0
   -0.4919   -0.9869   -1.3469 C   0  0  0  0  0  0  0  0  0  0  0  0
    3.1641    0.5243    0.0896 N   0  0  0  0  0  0  0  0  0  0  0  0
    3.0641   -0.9058    0.3914 C   0  0  0  0  0  0  0  0  0  0  0  0
    3.9227    1.3936    0.9870 C   0  0  0  0  0  0  0  0  0  0  0  0
    1.2116    0.7626   -2.6924 H   0  0  0  0  0  0  0  0  0  0  0  0
    0.5664    0.1070    0.2087 H   0  0  0  0  0  0  0  0  0  0  0  0
   -0.8274    2.0096   -1.8124 H   0  0  0  0  0  0  0  0  0  0  0  0
   -0.2138    2.3778   -0.1723 H   0  0  0  0  0  0  0  0  0  0  0  0
   -2.3273    0.6785   -1.1275 H   0  0  0  0  0  0  0  0  0  0  0  0
   -1.5170    0.8684    0.7462 H   0  0  0  0  0  0  0  0  0  0  0  0
   -4.2209    1.2069   -0.1550 H   0  0  0  0  0  0  0  0  0  0  0  0
   -3.4853    1.1339    1.4732 H   0  0  0  0  0  0  0  0  0  0  0  0
   -4.2879   -1.1017    1.0638 H   0  0  0  0  0  0  0  0  0  0  0  0
   -3.7533   -1.1296   -0.6352 H   0  0  0  0  0  0  0  0  0  0  0  0
   -1.6357   -1.0289    1.6467 H   0  0  0  0  0  0  0  0  0  0  0  0
   -2.4881   -2.4943    1.2773 H   0  0  0  0  0  0  0  0  0  0  0  0
   -1.6178   -2.7759   -0.8884 H   0  0  0  0  0  0  0  0  0  0  0  0
   -0.2854   -2.4583    0.2298 H   0  0  0  0  0  0  0  0  0  0  0  0
   -1.2076   -0.7651   -2.1656 H   0  0  0  0  0  0  0  0  0  0  0  0
    0.2827   -1.5963   -1.8639 H   0  0  0  0  0  0  0  0  0  0  0  0
    4.0821   -1.3382    0.4830 H   0  0  0  0  0  0  0  0  0  0  0  0
    2.5210   -1.0496    1.3496 H   0  0  0  0  0  0  0  0  0  0  0  0
    2.5293   -1.4550   -0.4123 H   0  0  0  0  0  0  0  0  0  0  0  0
    3.2808    2.2370    1.3177 H   0  0  0  0  0  0  0  0  0  0  0  0
    4.2617    0.8372    1.8863 H   0  0  0  0  0  0  0  0  0  0  0  0
    4.8154    1.7921    0.4619 H   0  0  0  0  0  0  0  0  0  0  0  0
  1  2  2  0
  2  3  1  0
  2 12  1  0
  3  4  1  0
  4  5  1  0
  4 11  1  0
  5  6  1  0
  6  7  1  0
  7  8  1  0
  8  9  1  0
  9 10  1  0
 10 11  1  0
 12 13  1  0
 12 14  1  0
  3 15  1  0
  4 16  1  0
  5 17  1  0
  5 18  1  0
  6 19  1  0
  6 20  1  0
  7 21  1  0
  7 22  1  0
  8 23  1  0
  8 24  1  0
  9 25  1  0
  9 26  1  0
 10 27  1  0
 10 28  1  0
 11 29  1  0
 11 30  1  0
 13 31  1  0
 13 32  1  0
 13 33  1  0
 14 34  1  0
 14 35  1  0
 14 36  1  0
M  END
$$$$
