O=C(Nc1cc(C(F)(F)F)ccc1)N(C)C
     RDKit          3D

 27 27  0  0  0  0  0  0  0  0999 V2000
   -1.0124   -1.5319    0.7664 O   0  0  0  0  0  0  0  0  0  0  0  0
   -1.5330   -0.4510    0.3744 C   0  0  0  0  0  0  0  0  0  0  0  0
   -0.7396    0.7495    0.3458 N   0  0  0  0  0  0  0  0  0  0  0  0
    0.6987    0.7548    0.3520 C   0  0  0  0  0  0  0  0  0  0  0  0
    1.4383   -0.2525   -0.2955 C   0  0  0  0  0  0  0  0  0  0  0  0
    2.8445   -0.2141   -0.3091 C   0  0  0  0  0  0  0  0  0  0  0  0
    3.6298   -1.3266   -0.9580 C   0  0  0  0  0  0  0  0  0  0  0  0
    4.8711   -0.8758   -1.3731 F   0  0  0  0  0  0  0  0  0  0  0  0
    3.8048   -2.3510   -0.0466 F   0  0  0  0  0  0  0  0  0  0  0  0
    2.9568   -1.8167   -2.0638 F   0  0  0  0  0  0  0  0  0  0  0  0
    3.5060    0.8289    0.3617 C   0  0  0  0  0  0  0  0  0  0  0  0
    2.7753    1.8423    0.9853 C   0  0  0  0  0  0  0  0  0  0  0  0
    1.3796    1.8127    0.9708 C   0  0  0  0  0  0  0  0  0  0  0  0
   -2.9248   -0.4296   -0.0071 N   0  0  0  0  0  0  0  0  0  0  0  0
   -3.7213   -1.6541    0.1217 C   0  0  0  0  0  0  0  0  0  0  0  0
   -3.5296    0.7876   -0.5570 C   0  0  0  0  0  0  0  0  0  0  0  0
   -1.2249    1.6702    0.4282 H   0  0  0  0  0  0  0  0  0  0  0  0
    0.9221   -1.0543   -0.8070 H   0  0  0  0  0  0  0  0  0  0  0  0
    4.5875    0.8640    0.3993 H   0  0  0  0  0  0  0  0  0  0  0  0
    3.2925    2.6512    1.4852 H   0  0  0  0  0  0  0  0  0  0  0  0
    0.8267    2.6054    1.4589 H   0  0  0  0  0  0  0  0  0  0  0  0
   -3.7227   -1.9895    1.1805 H   0  0  0  0  0  0  0  0  0  0  0  0
   -4.7750   -1.4960   -0.1901 H   0  0  0  0  0  0  0  0  0  0  0  0
   -3.2853   -2.4533   -0.5143 H   0  0  0  0  0  0  0  0  0  0  0  0
   -2.9273    1.1529   -1.4157 H   0  0  0  0  0  0  0  0  0  0  0  0
   -3.5752    1.5718    0.2272 H   0  0  0  0  0  0  0  0  0  0  0  0
   -4.5626    0.6050   -0.9202 H   0  0  0  0  0  0  0  0  0  0  0  0
  1  2  2  0
  2  3  1  0
  2 14  1  0
  3  4  1  0
  4 13  2  0
  4  5  1  0
  5  6  2  0
  6 11  1  0
  6  7  1  0
  7  8  1  0
  7  9  1  0
  7 10  1  0
 11 12  2  0
 12 13  1  0
 14 15  1  0
 14 16  1  0
  3 17  1  0
  5 18  1  0
 11 19  1  0
 12 20  1  0
 13 21  1  0
 15 22  1  0
 15 23  1  0
 15 24  1  0
 16 25  1  0
 16 26  1  0
 16 27  1  0
M  END
$$$$
