c1(cccc3)c3c(cccc4)c4c2c1cccc2
     RDKit          3D

 30 33  0  0  0  0  0  0  0  0999 V2000
    1.3315    0.5100   -0.1557 C   0  0  0  0  0  0  0  0  0  0  0  0
    2.6679    0.9825   -0.2767 C   0  0  0  0  0  0  0  0  0  0  0  0
    3.7343    0.1100   -0.4577 C   0  0  0  0  0  0  0  0  0  0  0  0
    3.5120   -1.2525   -0.5250 C   0  0  0  0  0  0  0  0  0  0  0  0
    2.2181   -1.7529   -0.4420 C   0  0  0  0  0  0  0  0  0  0  0  0
    1.0955   -0.8926   -0.2880 C   0  0  0  0  0  0  0  0  0  0  0  0
   -0.2381   -1.3981   -0.2487 C   0  0  0  0  0  0  0  0  0  0  0  0
   -0.5224   -2.7773   -0.4509 C   0  0  0  0  0  0  0  0  0  0  0  0
   -1.8182   -3.2727   -0.3672 C   0  0  0  0  0  0  0  0  0  0  0  0
   -2.8692   -2.4214   -0.0824 C   0  0  0  0  0  0  0  0  0  0  0  0
   -2.6381   -1.0621    0.0916 C   0  0  0  0  0  0  0  0  0  0  0  0
   -1.3318   -0.5090   -0.0165 C   0  0  0  0  0  0  0  0  0  0  0  0
   -1.0961    0.8919    0.1156 C   0  0  0  0  0  0  0  0  0  0  0  0
    0.2391    1.3979    0.0762 C   0  0  0  0  0  0  0  0  0  0  0  0
    0.4380    2.7906    0.2880 C   0  0  0  0  0  0  0  0  0  0  0  0
   -0.6318    3.6590    0.4687 C   0  0  0  0  0  0  0  0  0  0  0  0
   -1.9272    3.1777    0.4463 C   0  0  0  0  0  0  0  0  0  0  0  0
   -2.1635    1.8192    0.2729 C   0  0  0  0  0  0  0  0  0  0  0  0
    2.9335    2.0240   -0.2556 H   0  0  0  0  0  0  0  0  0  0  0  0
    4.7427    0.4957   -0.5411 H   0  0  0  0  0  0  0  0  0  0  0  0
    4.3485   -1.9291   -0.6479 H   0  0  0  0  0  0  0  0  0  0  0  0
    2.1435   -2.8245   -0.4845 H   0  0  0  0  0  0  0  0  0  0  0  0
    0.2270   -3.5084   -0.6951 H   0  0  0  0  0  0  0  0  0  0  0  0
   -2.0064   -4.3281   -0.5197 H   0  0  0  0  0  0  0  0  0  0  0  0
   -3.8743   -2.8157   -0.0004 H   0  0  0  0  0  0  0  0  0  0  0  0
   -3.5111   -0.4811    0.3285 H   0  0  0  0  0  0  0  0  0  0  0  0
    1.4084    3.2505    0.3399 H   0  0  0  0  0  0  0  0  0  0  0  0
   -0.4527    4.7158    0.6223 H   0  0  0  0  0  0  0  0  0  0  0  0
   -2.7578    3.8614    0.5696 H   0  0  0  0  0  0  0  0  0  0  0  0
   -3.2013    1.5395    0.2497 H   0  0  0  0  0  0  0  0  0  0  0  0
  1 14  1  0
  1  6  1  0
  1  2  2  0
  2  3  1  0
  3  4  2  0
  4  5  1  0
  5  6  2  0
  6  7  1  0
  7 12  2  0
  7  8  1  0
  8  9  2  0
  9 10  1  0
 10 11  2  0
 11 12  1  0
 12 13  1  0
 13 14  2  0
 13 18  1  0
 14 15  1  0
 15 16  2  0
 16 17  1  0
 17 18  2  0
  2 19  1  0
  3 20  1  0
  4 21  1  0
  5 22  1  0
  8 23  1  0
  9 24  1  0
 10 25  1  0
 11 26  1  0
 15 27  1  0
 16 28  1  0
 17 29  1  0
 18 30  1  0
M  END
$$$$
