O=C(OCCNCCCCC)c(cc1)ccc1N
     RDKit          3D

 40 40  0  0  0  0  0  0  0  0999 V2000
   -3.4954   -3.6392    0.2749 O   0  0  0  0  0  0  0  0  0  0  0  0
   -2.9567   -2.5405    0.5719 C   0  0  0  0  0  0  0  0  0  0  0  0
   -1.8538   -2.5478    1.4386 O   0  0  0  0  0  0  0  0  0  0  0  0
   -0.8883   -1.4997    1.5430 C   0  0  0  0  0  0  0  0  0  0  0  0
   -0.0424   -1.4109    0.2619 C   0  0  0  0  0  0  0  0  0  0  0  0
    0.8824   -0.2670    0.2748 N   0  0  0  0  0  0  0  0  0  0  0  0
    1.9958   -0.4580    1.2148 C   0  0  0  0  0  0  0  0  0  0  0  0
    3.0976    0.5747    0.9538 C   0  0  0  0  0  0  0  0  0  0  0  0
    3.7702    0.3588   -0.4121 C   0  0  0  0  0  0  0  0  0  0  0  0
    4.8131    1.4405   -0.7327 C   0  0  0  0  0  0  0  0  0  0  0  0
    6.0717    1.3223    0.1265 C   0  0  0  0  0  0  0  0  0  0  0  0
   -3.5050   -1.2986   -0.0087 C   0  0  0  0  0  0  0  0  0  0  0  0
   -3.8469   -0.2138    0.8134 C   0  0  0  0  0  0  0  0  0  0  0  0
   -4.3795    0.9528    0.2566 C   0  0  0  0  0  0  0  0  0  0  0  0
   -3.7390   -1.2156   -1.3898 C   0  0  0  0  0  0  0  0  0  0  0  0
   -4.2710   -0.0485   -1.9463 C   0  0  0  0  0  0  0  0  0  0  0  0
   -4.5900    1.0427   -1.1264 C   0  0  0  0  0  0  0  0  0  0  0  0
   -5.1342    2.2363   -1.6956 N   0  0  0  0  0  0  0  0  0  0  0  0
   -0.2277   -1.7359    2.4022 H   0  0  0  0  0  0  0  0  0  0  0  0
   -1.3783   -0.5299    1.7588 H   0  0  0  0  0  0  0  0  0  0  0  0
   -0.7176   -1.2922   -0.6112 H   0  0  0  0  0  0  0  0  0  0  0  0
    0.5140   -2.3618    0.1090 H   0  0  0  0  0  0  0  0  0  0  0  0
    0.3574    0.6011    0.5355 H   0  0  0  0  0  0  0  0  0  0  0  0
    2.4288   -1.4786    1.1160 H   0  0  0  0  0  0  0  0  0  0  0  0
    1.6381   -0.3297    2.2600 H   0  0  0  0  0  0  0  0  0  0  0  0
    2.6637    1.5973    1.0068 H   0  0  0  0  0  0  0  0  0  0  0  0
    3.8551    0.4794    1.7603 H   0  0  0  0  0  0  0  0  0  0  0  0
    4.2470   -0.6455   -0.4455 H   0  0  0  0  0  0  0  0  0  0  0  0
    2.9945    0.3889   -1.2078 H   0  0  0  0  0  0  0  0  0  0  0  0
    5.1097    1.3365   -1.7990 H   0  0  0  0  0  0  0  0  0  0  0  0
    4.3682    2.4512   -0.6053 H   0  0  0  0  0  0  0  0  0  0  0  0
    6.8311    2.0495   -0.2306 H   0  0  0  0  0  0  0  0  0  0  0  0
    6.4996    0.3000    0.0515 H   0  0  0  0  0  0  0  0  0  0  0  0
    5.8468    1.5529    1.1883 H   0  0  0  0  0  0  0  0  0  0  0  0
   -3.7184   -0.2759    1.8869 H   0  0  0  0  0  0  0  0  0  0  0  0
   -4.6346    1.7831    0.9030 H   0  0  0  0  0  0  0  0  0  0  0  0
   -3.4964   -2.0491   -2.0377 H   0  0  0  0  0  0  0  0  0  0  0  0
   -4.4353    0.0051   -3.0152 H   0  0  0  0  0  0  0  0  0  0  0  0
   -5.2973    2.3117   -2.7245 H   0  0  0  0  0  0  0  0  0  0  0  0
   -5.3771    3.0537   -1.0925 H   0  0  0  0  0  0  0  0  0  0  0  0
  1  2  2  0
  2 12  1  0
  2  3  1  0
  3  4  1  0
  4  5  1  0
  5  6  1  0
  6  7  1  0
  7  8  1  0
  8  9  1  0
  9 10  1  0
 10 11  1  0
 12 13  2  0
 12 15  1  0
 13 14  1  0
 14 17  2  0
 15 16  2  0
 16 17  1  0
 17 18  1  0
  4 19  1  0
  4 20  1  0
  5 21  1  0
  5 22  1  0
  6 23  1  0
  7 24  1  0
  7 25  1  0
  8 26  1  0
  8 27  1  0
  9 28  1  0
  9 29  1  0
 10 30  1  0
 10 31  1  0
 11 32  1  0
 11 33  1  0
 11 34  1  0
 13 35  1  0
 14 36  1  0
 15 37  1  0
 16 38  1  0
 18 39  1  0
 18 40  1  0
M  END
$$$$
