COc1ccc2c(ccc(C(C)C(O)=O)c2)c1
     RDKit          3D

 31 32  0  0  1  0  0  0  0  0999 V2000
    5.6721   -0.5558   -0.1837 C   0  0  0  0  0  0  0  0  0  0  0  0
    4.4507   -0.6454   -0.9101 O   0  0  0  0  0  0  0  0  0  0  0  0
    3.1845   -0.3810   -0.3669 C   0  0  0  0  0  0  0  0  0  0  0  0
    3.0056    0.0052    0.9752 C   0  0  0  0  0  0  0  0  0  0  0  0
    1.7249    0.2586    1.4740 C   0  0  0  0  0  0  0  0  0  0  0  0
    0.6037    0.1302    0.6418 C   0  0  0  0  0  0  0  0  0  0  0  0
    0.7763   -0.2567   -0.7071 C   0  0  0  0  0  0  0  0  0  0  0  0
   -0.3434   -0.3829   -1.5407 C   0  0  0  0  0  0  0  0  0  0  0  0
   -1.6234   -0.1295   -1.0426 C   0  0  0  0  0  0  0  0  0  0  0  0
   -1.8084    0.2495    0.2999 C   0  0  0  0  0  0  0  0  0  0  0  0
   -3.1948    0.5395    0.8381 C   0  0  1  0  0  0  0  0  0  0  0  0
   -3.7526    1.8273    0.2152 C   0  0  0  0  0  0  0  0  0  0  0  0
   -4.1000   -0.6490    0.6299 C   0  0  0  0  0  0  0  0  0  0  0  0
   -3.7949   -1.8542    1.2552 O   0  0  0  0  0  0  0  0  0  0  0  0
   -5.1248   -0.5688   -0.1012 O   0  0  0  0  0  0  0  0  0  0  0  0
   -0.6856    0.3829    1.1351 C   0  0  0  0  0  0  0  0  0  0  0  0
    2.0659   -0.5090   -1.1991 C   0  0  0  0  0  0  0  0  0  0  0  0
    5.8213    0.4806    0.1862 H   0  0  0  0  0  0  0  0  0  0  0  0
    5.6629   -1.2681    0.6682 H   0  0  0  0  0  0  0  0  0  0  0  0
    6.5142   -0.8176   -0.8567 H   0  0  0  0  0  0  0  0  0  0  0  0
    3.8503    0.1125    1.6418 H   0  0  0  0  0  0  0  0  0  0  0  0
    1.6115    0.5545    2.5102 H   0  0  0  0  0  0  0  0  0  0  0  0
   -0.2292   -0.6760   -2.5776 H   0  0  0  0  0  0  0  0  0  0  0  0
   -2.4742   -0.2309   -1.7048 H   0  0  0  0  0  0  0  0  0  0  0  0
   -3.1428    0.7091    1.9363 H   0  0  0  0  0  0  0  0  0  0  0  0
   -3.8702    1.7213   -0.8846 H   0  0  0  0  0  0  0  0  0  0  0  0
   -3.0655    2.6763    0.4199 H   0  0  0  0  0  0  0  0  0  0  0  0
   -4.7418    2.0685    0.6598 H   0  0  0  0  0  0  0  0  0  0  0  0
   -4.3843   -2.6685    1.1301 H   0  0  0  0  0  0  0  0  0  0  0  0
   -0.8159    0.6836    2.1684 H   0  0  0  0  0  0  0  0  0  0  0  0
    2.2079   -0.8060   -2.2318 H   0  0  0  0  0  0  0  0  0  0  0  0
  1  2  1  0
  2  3  1  0
  3  4  2  0
  3 17  1  0
  4  5  1  0
  5  6  2  0
  6 16  1  0
  6  7  1  0
  7  8  1  0
  7 17  2  0
  8  9  2  0
  9 10  1  0
 10 16  2  0
 10 11  1  0
 11 12  1  0
 11 13  1  0
 13 14  1  0
 13 15  2  0
  1 18  1  0
  1 19  1  0
  1 20  1  0
  4 21  1  0
  5 22  1  0
  8 23  1  0
  9 24  1  0
 11 25  1  1
 12 26  1  0
 12 27  1  0
 12 28  1  0
 14 29  1  0
 16 30  1  0
 17 31  1  0
M  END
$$$$
