NC(CC)Cc2c[nH]c1ccccc12
     RDKit          3D

 30 31  0  0  1  0  0  0  0  0999 V2000
   -1.6874   -0.1057   -1.6007 N   0  0  0  0  0  0  0  0  0  0  0  0
   -1.6517    0.0988   -0.1481 C   0  0  1  0  0  0  0  0  0  0  0  0
   -3.0738    0.2099    0.4487 C   0  0  0  0  0  0  0  0  0  0  0  0
   -3.8300    1.4388   -0.0551 C   0  0  0  0  0  0  0  0  0  0  0  0
   -0.8887   -1.0616    0.5161 C   0  0  0  0  0  0  0  0  0  0  0  0
    0.5327   -1.1349    0.0358 C   0  0  0  0  0  0  0  0  0  0  0  0
    1.0747   -2.1041   -0.8033 C   0  0  0  0  0  0  0  0  0  0  0  0
    2.3859   -1.8569   -1.0250 N   0  0  0  0  0  0  0  0  0  0  0  0
    2.6774   -0.7441   -0.3292 C   0  0  0  0  0  0  0  0  0  0  0  0
    3.9127   -0.1040   -0.2387 C   0  0  0  0  0  0  0  0  0  0  0  0
    3.9987    1.0489    0.5632 C   0  0  0  0  0  0  0  0  0  0  0  0
    2.8623    1.5281    1.2519 C   0  0  0  0  0  0  0  0  0  0  0  0
    1.6286    0.8608    1.1431 C   0  0  0  0  0  0  0  0  0  0  0  0
    1.5722   -0.2748    0.3341 C   0  0  0  0  0  0  0  0  0  0  0  0
   -1.9808    0.7824   -2.0674 H   0  0  0  0  0  0  0  0  0  0  0  0
   -2.3889   -0.8447   -1.8380 H   0  0  0  0  0  0  0  0  0  0  0  0
   -1.1073    1.0450    0.0682 H   0  0  0  0  0  0  0  0  0  0  0  0
   -2.9987    0.2872    1.5556 H   0  0  0  0  0  0  0  0  0  0  0  0
   -3.6625   -0.7036    0.2135 H   0  0  0  0  0  0  0  0  0  0  0  0
   -4.0640    1.3397   -1.1354 H   0  0  0  0  0  0  0  0  0  0  0  0
   -4.7884    1.5346    0.4975 H   0  0  0  0  0  0  0  0  0  0  0  0
   -3.2318    2.3595    0.1130 H   0  0  0  0  0  0  0  0  0  0  0  0
   -1.4054   -2.0201    0.2891 H   0  0  0  0  0  0  0  0  0  0  0  0
   -0.8817   -0.9358    1.6205 H   0  0  0  0  0  0  0  0  0  0  0  0
    0.5376   -2.9409   -1.2306 H   0  0  0  0  0  0  0  0  0  0  0  0
    3.0371   -2.4211   -1.6149 H   0  0  0  0  0  0  0  0  0  0  0  0
    4.7792   -0.4819   -0.7658 H   0  0  0  0  0  0  0  0  0  0  0  0
    4.9428    1.5697    0.6556 H   0  0  0  0  0  0  0  0  0  0  0  0
    2.9416    2.4129    1.8699 H   0  0  0  0  0  0  0  0  0  0  0  0
    0.7573    1.2179    1.6761 H   0  0  0  0  0  0  0  0  0  0  0  0
  1  2  1  0
  2  3  1  0
  2  5  1  0
  3  4  1  0
  5  6  1  0
  6 14  1  0
  6  7  2  0
  7  8  1  0
  8  9  1  0
  9 10  1  0
  9 14  2  0
 10 11  2  0
 11 12  1  0
 12 13  2  0
 13 14  1  0
  1 15  1  0
  1 16  1  0
  2 17  1  6
  3 18  1  0
  3 19  1  0
  4 20  1  0
  4 21  1  0
  4 22  1  0
  5 23  1  0
  5 24  1  0
  7 25  1  0
  8 26  1  0
 10 27  1  0
 11 28  1  0
 12 29  1  0
 13 30  1  0
M  END
$$$$
