OC(C2OC(C)=O)CNC2Cc1ccc(OC)cc1
     RDKit          3D

 38 39  0  0  1  0  0  0  0  0999 V2000
   -4.4461   -1.8218   -0.9181 O   0  0  0  0  0  0  0  0  0  0  0  0
   -3.1105   -1.3926   -0.9455 C   0  0  1  0  0  0  0  0  0  0  0  0
   -2.7740   -0.6106    0.3021 C   0  0  2  0  0  0  0  0  0  0  0  0
   -3.1309    0.7652    0.1550 O   0  0  0  0  0  0  0  0  0  0  0  0
   -3.1290    1.6728    1.2199 C   0  0  0  0  0  0  0  0  0  0  0  0
   -3.5043    3.0939    0.9733 C   0  0  0  0  0  0  0  0  0  0  0  0
   -2.8506    1.2944    2.3901 O   0  0  0  0  0  0  0  0  0  0  0  0
   -2.1421   -2.5695   -0.9049 C   0  0  0  0  0  0  0  0  0  0  0  0
   -1.0159   -2.2084   -0.0367 N   0  0  0  0  0  0  0  0  0  0  0  0
   -1.2681   -0.8522    0.4819 C   0  0  1  0  0  0  0  0  0  0  0  0
   -0.3907    0.2096   -0.2443 C   0  0  0  0  0  0  0  0  0  0  0  0
    1.1109    0.0989   -0.0400 C   0  0  0  0  0  0  0  0  0  0  0  0
    1.9398    0.9314   -0.8103 C   0  0  0  0  0  0  0  0  0  0  0  0
    3.3292    0.8925   -0.6650 C   0  0  0  0  0  0  0  0  0  0  0  0
    3.9205    0.0191    0.2649 C   0  0  0  0  0  0  0  0  0  0  0  0
    5.3091   -0.0584    0.4481 O   0  0  0  0  0  0  0  0  0  0  0  0
    6.2595    0.7202   -0.2716 C   0  0  0  0  0  0  0  0  0  0  0  0
    3.1002   -0.8050    1.0411 C   0  0  0  0  0  0  0  0  0  0  0  0
    1.7102   -0.7675    0.8978 C   0  0  0  0  0  0  0  0  0  0  0  0
   -4.6399   -2.1899   -1.8194 H   0  0  0  0  0  0  0  0  0  0  0  0
   -2.9163   -0.7676   -1.8492 H   0  0  0  0  0  0  0  0  0  0  0  0
   -3.3248   -1.0527    1.1652 H   0  0  0  0  0  0  0  0  0  0  0  0
   -4.5800    3.2380    1.2051 H   0  0  0  0  0  0  0  0  0  0  0  0
   -3.3222    3.3543   -0.0904 H   0  0  0  0  0  0  0  0  0  0  0  0
   -2.8965    3.7656    1.6155 H   0  0  0  0  0  0  0  0  0  0  0  0
   -2.6399   -3.4674   -0.4785 H   0  0  0  0  0  0  0  0  0  0  0  0
   -1.7945   -2.8167   -1.9334 H   0  0  0  0  0  0  0  0  0  0  0  0
   -0.1313   -2.2556   -0.5944 H   0  0  0  0  0  0  0  0  0  0  0  0
   -1.0489   -0.8228    1.5706 H   0  0  0  0  0  0  0  0  0  0  0  0
   -0.6026    0.1525   -1.3347 H   0  0  0  0  0  0  0  0  0  0  0  0
   -0.6789    1.2257    0.0952 H   0  0  0  0  0  0  0  0  0  0  0  0
    1.5063    1.6150   -1.5305 H   0  0  0  0  0  0  0  0  0  0  0  0
    3.9330    1.5464   -1.2792 H   0  0  0  0  0  0  0  0  0  0  0  0
    7.2802    0.4556    0.0727 H   0  0  0  0  0  0  0  0  0  0  0  0
    6.1841    0.5057   -1.3586 H   0  0  0  0  0  0  0  0  0  0  0  0
    6.0893    1.8011   -0.0823 H   0  0  0  0  0  0  0  0  0  0  0  0
    3.5437   -1.4790    1.7631 H   0  0  0  0  0  0  0  0  0  0  0  0
    1.1220   -1.4203    1.5255 H   0  0  0  0  0  0  0  0  0  0  0  0
  1  2  1  0
  2  8  1  0
  2  3  1  0
  3 10  1  0
  3  4  1  0
  4  5  1  0
  5  6  1  0
  5  7  2  0
  8  9  1  0
  9 10  1  0
 10 11  1  0
 11 12  1  0
 12 19  1  0
 12 13  2  0
 13 14  1  0
 14 15  2  0
 15 18  1  0
 15 16  1  0
 16 17  1  0
 18 19  2  0
  1 20  1  0
  2 21  1  6
  3 22  1  1
  6 23  1  0
  6 24  1  0
  6 25  1  0
  8 26  1  0
  8 27  1  0
  9 28  1  0
 10 29  1  1
 11 30  1  0
 11 31  1  0
 13 32  1  0
 14 33  1  0
 17 34  1  0
 17 35  1  0
 17 36  1  0
 18 37  1  0
 19 38  1  0
M  END
$$$$
