O=C(SCC(Cl)=CCl)N(C(C)C)C(C)C
     RDKit          3D

 32 31  0  0  0  0  0  0  0  0999 V2000
    1.6485   -1.5600    0.7762 O   0  0  0  0  0  0  0  0  0  0  0  0
    1.0436   -0.9616   -0.1534 C   0  0  0  0  0  0  0  0  0  0  0  0
    1.9474   -0.6298   -1.6742 S   0  0  0  0  0  0  0  0  0  0  0  0
    2.4340    1.0641   -1.1940 C   0  0  0  0  0  0  0  0  0  0  0  0
    3.4654    1.0472   -0.0971 C   0  0  0  0  0  0  0  0  0  0  0  0
    3.0274    1.7070    1.4807 Cl  0  0  0  0  0  0  0  0  0  0  0  0
    4.6933    0.5528   -0.3238 C   0  0  0  0  0  0  0  0  0  0  0  0
    5.9414    0.5165    0.9182 Cl  0  0  0  0  0  0  0  0  0  0  0  0
   -0.3311   -0.5451    0.0222 N   0  0  0  0  0  0  0  0  0  0  0  0
   -0.7378   -0.0984    1.3855 C   0  0  0  0  0  0  0  0  0  0  0  0
   -1.9757   -0.8216    1.9261 C   0  0  0  0  0  0  0  0  0  0  0  0
   -0.8877    1.4259    1.4753 C   0  0  0  0  0  0  0  0  0  0  0  0
   -1.2526   -0.6701   -1.1405 C   0  0  0  0  0  0  0  0  0  0  0  0
   -2.0643   -1.9706   -1.0854 C   0  0  0  0  0  0  0  0  0  0  0  0
   -2.1492    0.5548   -1.3499 C   0  0  0  0  0  0  0  0  0  0  0  0
    2.8497    1.5838   -2.0842 H   0  0  0  0  0  0  0  0  0  0  0  0
    1.5333    1.6292   -0.8757 H   0  0  0  0  0  0  0  0  0  0  0  0
    4.9484    0.1589   -1.3024 H   0  0  0  0  0  0  0  0  0  0  0  0
    0.0715   -0.3494    2.1061 H   0  0  0  0  0  0  0  0  0  0  0  0
   -1.8487   -1.9195    1.8241 H   0  0  0  0  0  0  0  0  0  0  0  0
   -2.9005   -0.4957    1.4101 H   0  0  0  0  0  0  0  0  0  0  0  0
   -2.1012   -0.5930    3.0066 H   0  0  0  0  0  0  0  0  0  0  0  0
   -1.8465    1.7793    1.0499 H   0  0  0  0  0  0  0  0  0  0  0  0
   -0.0467    1.9257    0.9509 H   0  0  0  0  0  0  0  0  0  0  0  0
   -0.8662    1.7377    2.5417 H   0  0  0  0  0  0  0  0  0  0  0  0
   -0.6572   -0.7427   -2.0740 H   0  0  0  0  0  0  0  0  0  0  0  0
   -2.9239   -1.8965   -0.3903 H   0  0  0  0  0  0  0  0  0  0  0  0
   -2.4723   -2.2015   -2.0928 H   0  0  0  0  0  0  0  0  0  0  0  0
   -1.4128   -2.8152   -0.7728 H   0  0  0  0  0  0  0  0  0  0  0  0
   -2.9514    0.6134   -0.5880 H   0  0  0  0  0  0  0  0  0  0  0  0
   -1.5384    1.4807   -1.3308 H   0  0  0  0  0  0  0  0  0  0  0  0
   -2.6398    0.4935   -2.3447 H   0  0  0  0  0  0  0  0  0  0  0  0
  1  2  2  0
  2  9  1  0
  2  3  1  0
  3  4  1  0
  4  5  1  0
  5  7  2  0
  5  6  1  0
  7  8  1  0
  9 10  1  0
  9 13  1  0
 10 12  1  0
 10 11  1  0
 13 15  1  0
 13 14  1  0
  4 16  1  0
  4 17  1  0
  7 18  1  0
 10 19  1  0
 11 20  1  0
 11 21  1  0
 11 22  1  0
 12 23  1  0
 12 24  1  0
 12 25  1  0
 13 26  1  0
 14 27  1  0
 14 28  1  0
 14 29  1  0
 15 30  1  0
 15 31  1  0
 15 32  1  0
M  END
$$$$
