O=C(SCC(Cl)=C(Cl)Cl)N(C(C)C)C(C)C
     RDKit          3D

 32 31  0  0  0  0  0  0  0  0999 V2000
    1.1273    1.8308    0.0334 O   0  0  0  0  0  0  0  0  0  0  0  0
    0.8241    0.7263   -0.4894 C   0  0  0  0  0  0  0  0  0  0  0  0
    2.1622   -0.3072   -1.1088 S   0  0  0  0  0  0  0  0  0  0  0  0
    2.4496   -1.1704    0.4768 C   0  0  0  0  0  0  0  0  0  0  0  0
    3.2889   -0.3320    1.4085 C   0  0  0  0  0  0  0  0  0  0  0  0
    2.5130    0.2863    2.8684 Cl  0  0  0  0  0  0  0  0  0  0  0  0
    4.5965   -0.0858    1.1762 C   0  0  0  0  0  0  0  0  0  0  0  0
    5.4415   -0.7468   -0.2231 Cl  0  0  0  0  0  0  0  0  0  0  0  0
    5.5536    0.8940    2.2841 Cl  0  0  0  0  0  0  0  0  0  0  0  0
   -0.5616    0.3085   -0.5741 N   0  0  0  0  0  0  0  0  0  0  0  0
   -1.5525    0.7821    0.4228 C   0  0  0  0  0  0  0  0  0  0  0  0
   -1.0862    0.5033    1.8567 C   0  0  0  0  0  0  0  0  0  0  0  0
   -1.8891    2.2647    0.2191 C   0  0  0  0  0  0  0  0  0  0  0  0
   -0.9681   -0.6643   -1.6145 C   0  0  0  0  0  0  0  0  0  0  0  0
   -2.1476   -0.1430   -2.4471 C   0  0  0  0  0  0  0  0  0  0  0  0
   -1.2784   -2.0316   -0.9955 C   0  0  0  0  0  0  0  0  0  0  0  0
    2.9612   -2.1354    0.2786 H   0  0  0  0  0  0  0  0  0  0  0  0
    1.4759   -1.4142    0.9514 H   0  0  0  0  0  0  0  0  0  0  0  0
   -2.5052    0.2257    0.3016 H   0  0  0  0  0  0  0  0  0  0  0  0
   -1.9119    0.7121    2.5702 H   0  0  0  0  0  0  0  0  0  0  0  0
   -0.7959   -0.5637    1.9597 H   0  0  0  0  0  0  0  0  0  0  0  0
   -0.2225    1.1426    2.1306 H   0  0  0  0  0  0  0  0  0  0  0  0
   -2.1549    2.4529   -0.8421 H   0  0  0  0  0  0  0  0  0  0  0  0
   -2.7609    2.5419    0.8494 H   0  0  0  0  0  0  0  0  0  0  0  0
   -1.0415    2.9219    0.4991 H   0  0  0  0  0  0  0  0  0  0  0  0
   -0.1431   -0.8149   -2.3420 H   0  0  0  0  0  0  0  0  0  0  0  0
   -1.9119    0.8677   -2.8426 H   0  0  0  0  0  0  0  0  0  0  0  0
   -2.3272   -0.8190   -3.3105 H   0  0  0  0  0  0  0  0  0  0  0  0
   -3.0829   -0.0905   -1.8531 H   0  0  0  0  0  0  0  0  0  0  0  0
   -1.4818   -2.7737   -1.7966 H   0  0  0  0  0  0  0  0  0  0  0  0
   -0.4068   -2.3860   -0.4069 H   0  0  0  0  0  0  0  0  0  0  0  0
   -2.1637   -1.9822   -0.3284 H   0  0  0  0  0  0  0  0  0  0  0  0
  1  2  2  0
  2 10  1  0
  2  3  1  0
  3  4  1  0
  4  5  1  0
  5  7  2  0
  5  6  1  0
  7  8  1  0
  7  9  1  0
 10 11  1  0
 10 14  1  0
 11 13  1  0
 11 12  1  0
 14 16  1  0
 14 15  1  0
  4 17  1  0
  4 18  1  0
 11 19  1  0
 12 20  1  0
 12 21  1  0
 12 22  1  0
 13 23  1  0
 13 24  1  0
 13 25  1  0
 14 26  1  0
 15 27  1  0
 15 28  1  0
 15 29  1  0
 16 30  1  0
 16 31  1  0
 16 32  1  0
M  END
$$$$
