OC(=O)CC(C)(C(=O)O)C(C)(C)C(=O)O
     RDKit          3D

 29 28  0  0  1  0  0  0  0  0999 V2000
    2.4408    2.0107    1.0620 O   0  0  0  0  0  0  0  0  0  0  0  0
    2.3475    0.6374    0.8479 C   0  0  0  0  0  0  0  0  0  0  0  0
    2.8234   -0.1442    1.7120 O   0  0  0  0  0  0  0  0  0  0  0  0
    1.7879    0.0912   -0.4406 C   0  0  0  0  0  0  0  0  0  0  0  0
    0.3602   -0.5736   -0.4122 C   0  0  1  0  0  0  0  0  0  0  0  0
    0.1400   -1.0774   -1.8773 C   0  0  0  0  0  0  0  0  0  0  0  0
    0.3918   -1.8093    0.5004 C   0  0  0  0  0  0  0  0  0  0  0  0
    0.1351   -2.9580    0.0432 O   0  0  0  0  0  0  0  0  0  0  0  0
    0.6984   -1.6939    1.8523 O   0  0  0  0  0  0  0  0  0  0  0  0
   -0.8426    0.4183   -0.0086 C   0  0  0  0  0  0  0  0  0  0  0  0
   -0.8072    1.7315   -0.8420 C   0  0  0  0  0  0  0  0  0  0  0  0
   -0.8354    0.8462    1.4826 C   0  0  0  0  0  0  0  0  0  0  0  0
   -2.1863   -0.2764   -0.2329 C   0  0  0  0  0  0  0  0  0  0  0  0
   -2.9995    0.1398   -1.1039 O   0  0  0  0  0  0  0  0  0  0  0  0
   -2.5281   -1.3910    0.5297 O   0  0  0  0  0  0  0  0  0  0  0  0
    2.1522    2.6808    0.3609 H   0  0  0  0  0  0  0  0  0  0  0  0
    2.5228   -0.6631   -0.8014 H   0  0  0  0  0  0  0  0  0  0  0  0
    1.8169    0.8968   -1.2043 H   0  0  0  0  0  0  0  0  0  0  0  0
    0.9262   -1.8104   -2.1638 H   0  0  0  0  0  0  0  0  0  0  0  0
   -0.8370   -1.5889   -2.0038 H   0  0  0  0  0  0  0  0  0  0  0  0
    0.1996   -0.2534   -2.6163 H   0  0  0  0  0  0  0  0  0  0  0  0
    0.7156   -2.5079    2.4550 H   0  0  0  0  0  0  0  0  0  0  0  0
   -1.6660    2.3861   -0.5759 H   0  0  0  0  0  0  0  0  0  0  0  0
    0.1095    2.3174   -0.6428 H   0  0  0  0  0  0  0  0  0  0  0  0
   -0.8775    1.5402   -1.9307 H   0  0  0  0  0  0  0  0  0  0  0  0
   -1.6839    1.5361    1.6865 H   0  0  0  0  0  0  0  0  0  0  0  0
   -0.9737   -0.0111    2.1696 H   0  0  0  0  0  0  0  0  0  0  0  0
    0.0814    1.3912    1.7631 H   0  0  0  0  0  0  0  0  0  0  0  0
   -3.4122   -1.8654    0.3913 H   0  0  0  0  0  0  0  0  0  0  0  0
  1  2  1  0
  2  4  1  0
  2  3  2  0
  5  4  1  6
  5  6  1  0
  5 10  1  0
  5  7  1  0
  7  9  1  0
  7  8  2  0
 10 11  1  0
 10 12  1  0
 10 13  1  0
 13 15  1  0
 13 14  2  0
  1 16  1  0
  4 17  1  0
  4 18  1  0
  6 19  1  0
  6 20  1  0
  6 21  1  0
  9 22  1  0
 11 23  1  0
 11 24  1  0
 11 25  1  0
 12 26  1  0
 12 27  1  0
 12 28  1  0
 15 29  1  0
M  END
$$$$
