Clc(cc(Cl)cc2)c2c1ccc(Cl)cc1Cl
     RDKit          3D

 22 23  0  0  0  0  0  0  0  0999 V2000
   -0.5797   -2.3363    1.5086 Cl  0  0  0  0  0  0  0  0  0  0  0  0
   -1.4279   -0.9852    0.7637 C   0  0  0  0  0  0  0  0  0  0  0  0
   -2.8233   -0.9292    0.8658 C   0  0  0  0  0  0  0  0  0  0  0  0
   -3.5340    0.1119    0.2602 C   0  0  0  0  0  0  0  0  0  0  0  0
   -5.2820    0.1742    0.3922 Cl  0  0  0  0  0  0  0  0  0  0  0  0
   -2.8514    1.0996   -0.4553 C   0  0  0  0  0  0  0  0  0  0  0  0
   -1.4591    1.0513   -0.5622 C   0  0  0  0  0  0  0  0  0  0  0  0
   -0.7363    0.0167    0.0519 C   0  0  0  0  0  0  0  0  0  0  0  0
    0.7345   -0.0083   -0.0746 C   0  0  0  0  0  0  0  0  0  0  0  0
    1.3101   -0.3517   -1.3077 C   0  0  0  0  0  0  0  0  0  0  0  0
    2.6994   -0.3856   -1.4531 C   0  0  0  0  0  0  0  0  0  0  0  0
    3.5252   -0.0707   -0.3703 C   0  0  0  0  0  0  0  0  0  0  0  0
    5.2690   -0.1131   -0.5556 Cl  0  0  0  0  0  0  0  0  0  0  0  0
    2.9606    0.2839    0.8590 C   0  0  0  0  0  0  0  0  0  0  0  0
    1.5695    0.3203    1.0134 C   0  0  0  0  0  0  0  0  0  0  0  0
    0.9044    0.8112    2.5679 Cl  0  0  0  0  0  0  0  0  0  0  0  0
   -3.3559   -1.6979    1.4115 H   0  0  0  0  0  0  0  0  0  0  0  0
   -3.3982    1.9051   -0.9288 H   0  0  0  0  0  0  0  0  0  0  0  0
   -0.9422    1.8244   -1.1179 H   0  0  0  0  0  0  0  0  0  0  0  0
    0.6816   -0.6001   -2.1543 H   0  0  0  0  0  0  0  0  0  0  0  0
    3.1324   -0.6569   -2.4075 H   0  0  0  0  0  0  0  0  0  0  0  0
    3.6032    0.5364    1.6932 H   0  0  0  0  0  0  0  0  0  0  0  0
  1  2  1  0
  2  3  2  0
  2  8  1  0
  3  4  1  0
  4  6  2  0
  4  5  1  0
  6  7  1  0
  7  8  2  0
  8  9  1  0
  9 10  2  0
  9 15  1  0
 10 11  1  0
 11 12  2  0
 12 14  1  0
 12 13  1  0
 14 15  2  0
 15 16  1  0
  3 17  1  0
  6 18  1  0
  7 19  1  0
 10 20  1  0
 11 21  1  0
 14 22  1  0
M  END
$$$$
