COc1c(O)cc(Cl)c(Cl)c1
     RDKit          3D

 17 17  0  0  0  0  0  0  0  0999 V2000
   -2.1713   -1.6852   -0.5576 C   0  0  0  0  0  0  0  0  0  0  0  0
   -1.7455   -0.3363   -0.3940 O   0  0  0  0  0  0  0  0  0  0  0  0
   -0.4310    0.0526   -0.0901 C   0  0  0  0  0  0  0  0  0  0  0  0
   -0.1419    1.4228    0.0452 C   0  0  0  0  0  0  0  0  0  0  0  0
   -1.1355    2.3881   -0.1174 O   0  0  0  0  0  0  0  0  0  0  0  0
    1.1591    1.8381    0.3477 C   0  0  0  0  0  0  0  0  0  0  0  0
    2.1829    0.9016    0.5184 C   0  0  0  0  0  0  0  0  0  0  0  0
    3.8031    1.4704    0.8977 Cl  0  0  0  0  0  0  0  0  0  0  0  0
    1.9040   -0.4674    0.3853 C   0  0  0  0  0  0  0  0  0  0  0  0
    3.1636   -1.6774    0.5922 Cl  0  0  0  0  0  0  0  0  0  0  0  0
    0.6040   -0.8876    0.0828 C   0  0  0  0  0  0  0  0  0  0  0  0
   -1.6210   -2.1602   -1.3971 H   0  0  0  0  0  0  0  0  0  0  0  0
   -3.2555   -1.6971   -0.7918 H   0  0  0  0  0  0  0  0  0  0  0  0
   -2.0041   -2.2550    0.3808 H   0  0  0  0  0  0  0  0  0  0  0  0
   -2.0940    2.1449   -0.3369 H   0  0  0  0  0  0  0  0  0  0  0  0
    1.3729    2.8948    0.4500 H   0  0  0  0  0  0  0  0  0  0  0  0
    0.4102   -1.9471   -0.0154 H   0  0  0  0  0  0  0  0  0  0  0  0
  1  2  1  0
  2  3  1  0
  3 11  2  0
  3  4  1  0
  4  6  2  0
  4  5  1  0
  6  7  1  0
  7  9  2  0
  7  8  1  0
  9 11  1  0
  9 10  1  0
  1 12  1  0
  1 13  1  0
  1 14  1  0
  5 15  1  0
  6 16  1  0
 11 17  1  0
M  END
$$$$
