Cc1c(C(Nc2ccccc2)=O)cco1
     RDKit          3D

 26 27  0  0  0  0  0  0  0  0999 V2000
   -2.3269   -1.1687    1.1039 C   0  0  0  0  0  0  0  0  0  0  0  0
   -2.8516   -0.0379    0.2787 C   0  0  0  0  0  0  0  0  0  0  0  0
   -2.1186    0.8812   -0.4620 C   0  0  0  0  0  0  0  0  0  0  0  0
   -0.6565    0.9683   -0.6488 C   0  0  0  0  0  0  0  0  0  0  0  0
    0.2486    0.4204    0.3201 N   0  0  0  0  0  0  0  0  0  0  0  0
    1.5840   -0.0128    0.0077 C   0  0  0  0  0  0  0  0  0  0  0  0
    2.5656   -0.0035    1.0119 C   0  0  0  0  0  0  0  0  0  0  0  0
    3.8650   -0.4403    0.7362 C   0  0  0  0  0  0  0  0  0  0  0  0
    4.1922   -0.9023   -0.5409 C   0  0  0  0  0  0  0  0  0  0  0  0
    3.2187   -0.9345   -1.5424 C   0  0  0  0  0  0  0  0  0  0  0  0
    1.9180   -0.4979   -1.2712 C   0  0  0  0  0  0  0  0  0  0  0  0
   -0.2031    1.5816   -1.6530 O   0  0  0  0  0  0  0  0  0  0  0  0
   -3.0517    1.6840   -1.0890 C   0  0  0  0  0  0  0  0  0  0  0  0
   -4.2864    1.2230   -0.6822 C   0  0  0  0  0  0  0  0  0  0  0  0
   -4.1348    0.1993    0.1263 O   0  0  0  0  0  0  0  0  0  0  0  0
   -3.1672   -1.8181    1.4274 H   0  0  0  0  0  0  0  0  0  0  0  0
   -1.8244   -0.7780    2.0113 H   0  0  0  0  0  0  0  0  0  0  0  0
   -1.6165   -1.7771    0.5060 H   0  0  0  0  0  0  0  0  0  0  0  0
   -0.0345    0.4572    1.3241 H   0  0  0  0  0  0  0  0  0  0  0  0
    2.3247    0.3501    2.0067 H   0  0  0  0  0  0  0  0  0  0  0  0
    4.6178   -0.4224    1.5137 H   0  0  0  0  0  0  0  0  0  0  0  0
    5.1979   -1.2420   -0.7525 H   0  0  0  0  0  0  0  0  0  0  0  0
    3.4698   -1.3053   -2.5278 H   0  0  0  0  0  0  0  0  0  0  0  0
    1.1730   -0.5597   -2.0532 H   0  0  0  0  0  0  0  0  0  0  0  0
   -2.8592    2.5063   -1.7656 H   0  0  0  0  0  0  0  0  0  0  0  0
   -5.2438    1.6291   -0.9798 H   0  0  0  0  0  0  0  0  0  0  0  0
  1  2  1  0
  2  3  2  0
  2 15  1  0
  3 13  1  0
  3  4  1  0
  4  5  1  0
  4 12  2  0
  5  6  1  0
  6 11  1  0
  6  7  2  0
  7  8  1  0
  8  9  2  0
  9 10  1  0
 10 11  2  0
 13 14  2  0
 14 15  1  0
  1 16  1  0
  1 17  1  0
  1 18  1  0
  5 19  1  0
  7 20  1  0
  8 21  1  0
  9 22  1  0
 10 23  1  0
 11 24  1  0
 13 25  1  0
 14 26  1  0
M  END
$$$$
