OC1(C(OC)=O)c3c(ccc(Cl)c3)c2c1cccc2
     RDKit          3D

 30 32  0  0  1  0  0  0  0  0999 V2000
    0.5947   -0.0094    2.1524 O   0  0  0  0  0  0  0  0  0  0  0  0
    0.5045   -0.0041    0.7495 C   0  0  2  0  0  0  0  0  0  0  0  0
    1.8557    0.1499    0.0961 C   0  0  0  0  0  0  0  0  0  0  0  0
    2.9876    0.3749    0.8861 O   0  0  0  0  0  0  0  0  0  0  0  0
    4.2875    0.5395    0.3330 C   0  0  0  0  0  0  0  0  0  0  0  0
    1.9568    0.0938   -1.1613 O   0  0  0  0  0  0  0  0  0  0  0  0
   -0.4341    1.0891    0.3068 C   0  0  0  0  0  0  0  0  0  0  0  0
   -1.5358    0.5761   -0.3544 C   0  0  0  0  0  0  0  0  0  0  0  0
   -2.5433    1.4020   -0.8529 C   0  0  0  0  0  0  0  0  0  0  0  0
   -2.4186    2.7880   -0.6677 C   0  0  0  0  0  0  0  0  0  0  0  0
   -1.3011    3.3197    0.0079 C   0  0  0  0  0  0  0  0  0  0  0  0
   -1.1599    5.0530    0.2336 Cl  0  0  0  0  0  0  0  0  0  0  0  0
   -0.2992    2.4664    0.5024 C   0  0  0  0  0  0  0  0  0  0  0  0
   -1.4129   -0.8655   -0.3957 C   0  0  0  0  0  0  0  0  0  0  0  0
   -0.2373   -1.2209    0.2418 C   0  0  0  0  0  0  0  0  0  0  0  0
    0.1365   -2.5641    0.3462 C   0  0  0  0  0  0  0  0  0  0  0  0
   -0.7062   -3.5431   -0.2061 C   0  0  0  0  0  0  0  0  0  0  0  0
   -1.9022   -3.1726   -0.8517 C   0  0  0  0  0  0  0  0  0  0  0  0
   -2.2653   -1.8201   -0.9513 C   0  0  0  0  0  0  0  0  0  0  0  0
    1.1245   -0.8077    2.4141 H   0  0  0  0  0  0  0  0  0  0  0  0
    4.3038    1.4202   -0.3435 H   0  0  0  0  0  0  0  0  0  0  0  0
    4.5791   -0.3723   -0.2301 H   0  0  0  0  0  0  0  0  0  0  0  0
    5.0150    0.7033    1.1542 H   0  0  0  0  0  0  0  0  0  0  0  0
   -3.4007    0.9896   -1.3682 H   0  0  0  0  0  0  0  0  0  0  0  0
   -3.1882    3.4485   -1.0462 H   0  0  0  0  0  0  0  0  0  0  0  0
    0.5619    2.8654    1.0231 H   0  0  0  0  0  0  0  0  0  0  0  0
    1.0578   -2.8461    0.8390 H   0  0  0  0  0  0  0  0  0  0  0  0
   -0.4341   -4.5882   -0.1359 H   0  0  0  0  0  0  0  0  0  0  0  0
   -2.5443   -3.9345   -1.2741 H   0  0  0  0  0  0  0  0  0  0  0  0
   -3.1824   -1.5304   -1.4472 H   0  0  0  0  0  0  0  0  0  0  0  0
  2  1  1  1
  2 15  1  0
  2  7  1  0
  2  3  1  0
  3  6  2  0
  3  4  1  0
  4  5  1  0
  7 13  1  0
  7  8  2  0
  8  9  1  0
  8 14  1  0
  9 10  2  0
 10 11  1  0
 11 13  2  0
 11 12  1  0
 14 19  1  0
 14 15  2  0
 15 16  1  0
 16 17  2  0
 17 18  1  0
 18 19  2  0
  1 20  1  0
  5 21  1  0
  5 22  1  0
  5 23  1  0
  9 24  1  0
 10 25  1  0
 13 26  1  0
 16 27  1  0
 17 28  1  0
 18 29  1  0
 19 30  1  0
M  END
$$$$
