Nc(c4c3cccc4)cc1c3ccc2c1cccc2
     RDKit          3D

 32 35  0  0  0  0  0  0  0  0999 V2000
    2.1599    2.9501    0.3439 N   0  0  0  0  0  0  0  0  0  0  0  0
    1.5512    1.6547    0.2061 C   0  0  0  0  0  0  0  0  0  0  0  0
    2.3101    0.4875   -0.0269 C   0  0  0  0  0  0  0  0  0  0  0  0
    1.6452   -0.7543   -0.2579 C   0  0  0  0  0  0  0  0  0  0  0  0
    2.4459   -1.9058   -0.4849 C   0  0  0  0  0  0  0  0  0  0  0  0
    3.8371   -1.8313   -0.4856 C   0  0  0  0  0  0  0  0  0  0  0  0
    4.4729   -0.6229   -0.2450 C   0  0  0  0  0  0  0  0  0  0  0  0
    3.7234    0.5247   -0.0090 C   0  0  0  0  0  0  0  0  0  0  0  0
    0.1618    1.5739    0.2920 C   0  0  0  0  0  0  0  0  0  0  0  0
   -0.5355    0.3647    0.0982 C   0  0  0  0  0  0  0  0  0  0  0  0
    0.2135   -0.8067   -0.2322 C   0  0  0  0  0  0  0  0  0  0  0  0
   -0.4957   -1.9922   -0.5351 C   0  0  0  0  0  0  0  0  0  0  0  0
   -1.8809   -2.0433   -0.4829 C   0  0  0  0  0  0  0  0  0  0  0  0
   -2.6216   -0.9247   -0.1134 C   0  0  0  0  0  0  0  0  0  0  0  0
   -1.9651    0.2962    0.1941 C   0  0  0  0  0  0  0  0  0  0  0  0
   -2.7738    1.3916    0.5985 C   0  0  0  0  0  0  0  0  0  0  0  0
   -4.1646    1.2764    0.6604 C   0  0  0  0  0  0  0  0  0  0  0  0
   -4.7870    0.0765    0.3330 C   0  0  0  0  0  0  0  0  0  0  0  0
   -4.0216   -1.0214   -0.0487 C   0  0  0  0  0  0  0  0  0  0  0  0
    3.0950    3.1775   -0.0555 H   0  0  0  0  0  0  0  0  0  0  0  0
    1.6067    3.7572    0.7097 H   0  0  0  0  0  0  0  0  0  0  0  0
    2.0363   -2.8879   -0.6428 H   0  0  0  0  0  0  0  0  0  0  0  0
    4.4263   -2.7232   -0.6579 H   0  0  0  0  0  0  0  0  0  0  0  0
    5.5545   -0.5765   -0.2280 H   0  0  0  0  0  0  0  0  0  0  0  0
    4.2740    1.4254    0.2131 H   0  0  0  0  0  0  0  0  0  0  0  0
   -0.3541    2.5017    0.4674 H   0  0  0  0  0  0  0  0  0  0  0  0
   -0.0137   -2.9037   -0.8413 H   0  0  0  0  0  0  0  0  0  0  0  0
   -2.3780   -2.9753   -0.7279 H   0  0  0  0  0  0  0  0  0  0  0  0
   -2.3693    2.3441    0.8947 H   0  0  0  0  0  0  0  0  0  0  0  0
   -4.7630    2.1237    0.9705 H   0  0  0  0  0  0  0  0  0  0  0  0
   -5.8652   -0.0057    0.3836 H   0  0  0  0  0  0  0  0  0  0  0  0
   -4.5247   -1.9507   -0.2900 H   0  0  0  0  0  0  0  0  0  0  0  0
  1  2  1  0
  2  9  2  0
  2  3  1  0
  3  8  2  0
  3  4  1  0
  4  5  2  0
  4 11  1  0
  5  6  1  0
  6  7  2  0
  7  8  1  0
  9 10  1  0
 10 15  2  0
 10 11  1  0
 11 12  2  0
 12 13  1  0
 13 14  2  0
 14 19  1  0
 14 15  1  0
 15 16  1  0
 16 17  2  0
 17 18  1  0
 18 19  2  0
  1 20  1  0
  1 21  1  0
  5 22  1  0
  6 23  1  0
  7 24  1  0
  8 25  1  0
  9 26  1  0
 12 27  1  0
 13 28  1  0
 16 29  1  0
 17 30  1  0
 18 31  1  0
 19 32  1  0
M  END
$$$$
