c12c(cccc2)nco1
     RDKit          3D

 14 15  0  0  0  0  0  0  0  0999 V2000
    0.6559   -0.6301   -0.0915 C   0  0  0  0  0  0  0  0  0  0  0  0
    0.5681    0.7185    0.0679 C   0  0  0  0  0  0  0  0  0  0  0  0
   -0.6592    1.3681    0.1776 C   0  0  0  0  0  0  0  0  0  0  0  0
   -1.8233    0.5772    0.1177 C   0  0  0  0  0  0  0  0  0  0  0  0
   -1.7290   -0.8248   -0.0481 C   0  0  0  0  0  0  0  0  0  0  0  0
   -0.4699   -1.4463   -0.1554 C   0  0  0  0  0  0  0  0  0  0  0  0
    1.7968    1.2609    0.0970 N   0  0  0  0  0  0  0  0  0  0  0  0
    2.5937    0.1695   -0.0522 C   0  0  0  0  0  0  0  0  0  0  0  0
    1.9160   -0.9615   -0.1651 O   0  0  0  0  0  0  0  0  0  0  0  0
   -0.7173    2.4414    0.3041 H   0  0  0  0  0  0  0  0  0  0  0  0
   -2.7957    1.0451    0.1992 H   0  0  0  0  0  0  0  0  0  0  0  0
   -2.6295   -1.4232   -0.0928 H   0  0  0  0  0  0  0  0  0  0  0  0
   -0.3807   -2.5172   -0.2825 H   0  0  0  0  0  0  0  0  0  0  0  0
    3.6739    0.2224   -0.0759 H   0  0  0  0  0  0  0  0  0  0  0  0
  1  9  1  0
  1  2  1  0
  1  6  2  0
  2  3  2  0
  2  7  1  0
  3  4  1  0
  4  5  2  0
  5  6  1  0
  7  8  2  0
  8  9  1  0
  3 10  1  0
  4 11  1  0
  5 12  1  0
  6 13  1  0
  8 14  1  0
M  END
$$$$
