O=C1C(Cl)=C(NC)C=NN1c2cc(C(F)(F)F)ccc2
     RDKit          3D

 29 30  0  0  0  0  0  0  0  0999 V2000
   -0.1923    1.9653   -0.4514 O   0  0  0  0  0  0  0  0  0  0  0  0
   -0.8251    0.8842   -0.2947 C   0  0  0  0  0  0  0  0  0  0  0  0
   -2.2030    0.8457   -0.5541 C   0  0  0  0  0  0  0  0  0  0  0  0
   -2.9831    2.2804   -1.2194 Cl  0  0  0  0  0  0  0  0  0  0  0  0
   -2.9077   -0.3530   -0.3319 C   0  0  0  0  0  0  0  0  0  0  0  0
   -4.3234   -0.4805   -0.5543 N   0  0  0  0  0  0  0  0  0  0  0  0
   -5.2941    0.4774   -0.0336 C   0  0  0  0  0  0  0  0  0  0  0  0
   -2.1937   -1.4690    0.1077 C   0  0  0  0  0  0  0  0  0  0  0  0
   -0.8605   -1.3768    0.3357 N   0  0  0  0  0  0  0  0  0  0  0  0
   -0.1797   -0.2446    0.1406 N   0  0  0  0  0  0  0  0  0  0  0  0
    1.2352   -0.2517    0.4110 C   0  0  0  0  0  0  0  0  0  0  0  0
    2.1537    0.2277   -0.5405 C   0  0  0  0  0  0  0  0  0  0  0  0
    3.5351    0.2112   -0.2769 C   0  0  0  0  0  0  0  0  0  0  0  0
    4.5151    0.6869   -1.3199 C   0  0  0  0  0  0  0  0  0  0  0  0
    4.8273   -0.3628   -2.1634 F   0  0  0  0  0  0  0  0  0  0  0  0
    5.6769    1.1493   -0.7262 F   0  0  0  0  0  0  0  0  0  0  0  0
    3.9708    1.7184   -2.0654 F   0  0  0  0  0  0  0  0  0  0  0  0
    3.9934   -0.3453    0.9296 C   0  0  0  0  0  0  0  0  0  0  0  0
    3.0860   -0.8386    1.8698 C   0  0  0  0  0  0  0  0  0  0  0  0
    1.7144   -0.7940    1.6130 C   0  0  0  0  0  0  0  0  0  0  0  0
   -4.6910   -1.4263   -0.8065 H   0  0  0  0  0  0  0  0  0  0  0  0
   -4.9307    0.9183    0.9191 H   0  0  0  0  0  0  0  0  0  0  0  0
   -6.2591   -0.0363    0.1620 H   0  0  0  0  0  0  0  0  0  0  0  0
   -5.4802    1.2761   -0.7791 H   0  0  0  0  0  0  0  0  0  0  0  0
   -2.6986   -2.4099    0.2838 H   0  0  0  0  0  0  0  0  0  0  0  0
    1.7909    0.5960   -1.4921 H   0  0  0  0  0  0  0  0  0  0  0  0
    5.0533   -0.4057    1.1426 H   0  0  0  0  0  0  0  0  0  0  0  0
    3.4474   -1.2627    2.7978 H   0  0  0  0  0  0  0  0  0  0  0  0
    1.0228   -1.1799    2.3513 H   0  0  0  0  0  0  0  0  0  0  0  0
  1  2  2  0
  2  3  1  0
  2 10  1  0
  3  5  2  0
  3  4  1  0
  5  8  1  0
  5  6  1  0
  6  7  1  0
  8  9  2  0
  9 10  1  0
 10 11  1  0
 11 20  1  0
 11 12  2  0
 12 13  1  0
 13 18  2  0
 13 14  1  0
 14 15  1  0
 14 16  1  0
 14 17  1  0
 18 19  1  0
 19 20  2  0
  6 21  1  0
  7 22  1  0
  7 23  1  0
  7 24  1  0
  8 25  1  0
 12 26  1  0
 18 27  1  0
 19 28  1  0
 20 29  1  0
M  END
$$$$
