O=C(C(NC(C(Cl)Cl)=O)=C2Cl)c(cccc1)c1C2=O
     RDKit          3D

 25 26  0  0  0  0  0  0  0  0999 V2000
    0.5609    1.8068    1.0595 O   0  0  0  0  0  0  0  0  0  0  0  0
    0.0410    0.8781    0.3831 C   0  0  0  0  0  0  0  0  0  0  0  0
    0.9075   -0.0038   -0.4319 C   0  0  0  0  0  0  0  0  0  0  0  0
    2.3221    0.2386   -0.4390 N   0  0  0  0  0  0  0  0  0  0  0  0
    3.2678   -0.7137    0.0721 C   0  0  0  0  0  0  0  0  0  0  0  0
    4.7356   -0.4174    0.0377 C   0  0  0  0  0  0  0  0  0  0  0  0
    5.2548   -0.0755   -1.6315 Cl  0  0  0  0  0  0  0  0  0  0  0  0
    5.1005    0.9835    1.0747 Cl  0  0  0  0  0  0  0  0  0  0  0  0
    2.8678   -1.7979    0.5773 O   0  0  0  0  0  0  0  0  0  0  0  0
    0.3681   -0.9843   -1.1851 C   0  0  0  0  0  0  0  0  0  0  0  0
    1.3733   -1.9619   -2.2564 Cl  0  0  0  0  0  0  0  0  0  0  0  0
   -1.4236    0.6644    0.4113 C   0  0  0  0  0  0  0  0  0  0  0  0
   -2.2625    1.4799    1.1913 C   0  0  0  0  0  0  0  0  0  0  0  0
   -3.6421    1.2596    1.2068 C   0  0  0  0  0  0  0  0  0  0  0  0
   -4.1954    0.2274    0.4471 C   0  0  0  0  0  0  0  0  0  0  0  0
   -3.3718   -0.5891   -0.3321 C   0  0  0  0  0  0  0  0  0  0  0  0
   -1.9820   -0.3770   -0.3557 C   0  0  0  0  0  0  0  0  0  0  0  0
   -1.0915   -1.2269   -1.1778 C   0  0  0  0  0  0  0  0  0  0  0  0
   -1.5719   -2.1588   -1.8785 O   0  0  0  0  0  0  0  0  0  0  0  0
    2.6520    1.2075   -0.6484 H   0  0  0  0  0  0  0  0  0  0  0  0
    5.3115   -1.2909    0.4109 H   0  0  0  0  0  0  0  0  0  0  0  0
   -1.8532    2.2853    1.7881 H   0  0  0  0  0  0  0  0  0  0  0  0
   -4.2832    1.8902    1.8091 H   0  0  0  0  0  0  0  0  0  0  0  0
   -5.2646    0.0597    0.4615 H   0  0  0  0  0  0  0  0  0  0  0  0
   -3.8209   -1.3836   -0.9148 H   0  0  0  0  0  0  0  0  0  0  0  0
  1  2  2  0
  2 12  1  0
  2  3  1  0
  3 10  2  0
  3  4  1  0
  4  5  1  0
  5  6  1  0
  5  9  2  0
  6  8  1  0
  6  7  1  0
 10 18  1  0
 10 11  1  0
 12 13  1  0
 12 17  2  0
 13 14  2  0
 14 15  1  0
 15 16  2  0
 16 17  1  0
 17 18  1  0
 18 19  2  0
  4 20  1  0
  6 21  1  0
 13 22  1  0
 14 23  1  0
 15 24  1  0
 16 25  1  0
M  END
$$$$
