O=C(NC1C2C3CCCC3C(C1)C2)N(C)C
     RDKit          3D

 38 40  0  0  1  0  0  0  0  0999 V2000
    2.4948    0.9697   -1.6300 O   0  0  0  0  0  0  0  0  0  0  0  0
    2.4252    0.4093   -0.5012 C   0  0  0  0  0  0  0  0  0  0  0  0
    1.4731   -0.6492   -0.2976 N   0  0  0  0  0  0  0  0  0  0  0  0
    0.4425   -0.9611   -1.2964 C   0  0  2  0  0  0  0  0  0  0  0  0
   -0.6055    0.1734   -1.4804 C   0  0  2  0  0  0  0  0  0  0  0  0
   -1.3121    0.3583   -0.0979 C   0  0  1  0  0  0  0  0  0  0  0  0
   -2.0179    1.5241    0.5481 C   0  0  0  0  0  0  0  0  0  0  0  0
   -2.8266    0.7777    1.6649 C   0  0  0  0  0  0  0  0  0  0  0  0
   -2.8417   -0.7425    1.2857 C   0  0  0  0  0  0  0  0  0  0  0  0
   -2.4227   -0.6539   -0.1598 C   0  0  2  0  0  0  0  0  0  0  0  0
   -1.8971   -1.6536   -1.2044 C   0  0  2  0  0  0  0  0  0  0  0  0
   -0.4637   -2.1665   -0.8921 C   0  0  0  0  0  0  0  0  0  0  0  0
   -1.6106   -0.6270   -2.3064 C   0  0  0  0  0  0  0  0  0  0  0  0
    3.3001    0.8422    0.5627 N   0  0  0  0  0  0  0  0  0  0  0  0
    4.3160    1.8616    0.2810 C   0  0  0  0  0  0  0  0  0  0  0  0
    3.1557    0.3035    1.9189 C   0  0  0  0  0  0  0  0  0  0  0  0
    1.5349   -1.2370    0.5623 H   0  0  0  0  0  0  0  0  0  0  0  0
    0.9483   -1.1815   -2.2655 H   0  0  0  0  0  0  0  0  0  0  0  0
   -0.2258    1.1012   -1.9569 H   0  0  0  0  0  0  0  0  0  0  0  0
   -0.5695    0.0782    0.6886 H   0  0  0  0  0  0  0  0  0  0  0  0
   -1.2979    2.2543    0.9781 H   0  0  0  0  0  0  0  0  0  0  0  0
   -2.6947    2.0327   -0.1740 H   0  0  0  0  0  0  0  0  0  0  0  0
   -3.8626    1.1776    1.7118 H   0  0  0  0  0  0  0  0  0  0  0  0
   -2.3396    0.9146    2.6547 H   0  0  0  0  0  0  0  0  0  0  0  0
   -3.8547   -1.1869    1.3976 H   0  0  0  0  0  0  0  0  0  0  0  0
   -2.1011   -1.3184    1.8839 H   0  0  0  0  0  0  0  0  0  0  0  0
   -3.3523   -0.2339   -0.6350 H   0  0  0  0  0  0  0  0  0  0  0  0
   -2.6252   -2.4422   -1.4902 H   0  0  0  0  0  0  0  0  0  0  0  0
   -0.3762   -2.4411    0.1814 H   0  0  0  0  0  0  0  0  0  0  0  0
   -0.2254   -3.0538   -1.5178 H   0  0  0  0  0  0  0  0  0  0  0  0
   -2.4866   -0.0139   -2.6227 H   0  0  0  0  0  0  0  0  0  0  0  0
   -1.1813   -1.0891   -3.2271 H   0  0  0  0  0  0  0  0  0  0  0  0
    4.9963    1.5001   -0.5189 H   0  0  0  0  0  0  0  0  0  0  0  0
    4.9305    2.0916    1.1765 H   0  0  0  0  0  0  0  0  0  0  0  0
    3.8234    2.7988   -0.0541 H   0  0  0  0  0  0  0  0  0  0  0  0
    3.8310    0.8130    2.6379 H   0  0  0  0  0  0  0  0  0  0  0  0
    3.4063   -0.7781    1.9220 H   0  0  0  0  0  0  0  0  0  0  0  0
    2.1125    0.4478    2.2721 H   0  0  0  0  0  0  0  0  0  0  0  0
  1  2  2  0
  2  3  1  0
  2 14  1  0
  3  4  1  0
  4 12  1  0
  4  5  1  0
  5 13  1  0
  5  6  1  0
  6  7  1  0
  6 10  1  0
  7  8  1  0
  8  9  1  0
  9 10  1  0
 10 11  1  0
 11 13  1  0
 11 12  1  0
 14 15  1  0
 14 16  1  0
  3 17  1  0
  4 18  1  6
  5 19  1  6
  6 20  1  1
  7 21  1  0
  7 22  1  0
  8 23  1  0
  8 24  1  0
  9 25  1  0
  9 26  1  0
 10 27  1  6
 11 28  1  6
 12 29  1  0
 12 30  1  0
 13 31  1  0
 13 32  1  0
 15 33  1  0
 15 34  1  0
 15 35  1  0
 16 36  1  0
 16 37  1  0
 16 38  1  0
M  END
$$$$
