c1cccnn1
     RDKit          3D

 10 10  0  0  0  0  0  0  0  0999 V2000
    1.3742   -0.4361   -0.0600 C   0  0  0  0  0  0  0  0  0  0  0  0
    0.6983    0.7784    0.0500 C   0  0  0  0  0  0  0  0  0  0  0  0
   -0.6952    0.7791    0.0752 C   0  0  0  0  0  0  0  0  0  0  0  0
   -1.3759   -0.4347   -0.0101 C   0  0  0  0  0  0  0  0  0  0  0  0
   -0.6705   -1.5917   -0.1159 N   0  0  0  0  0  0  0  0  0  0  0  0
    0.6643   -1.5924   -0.1401 N   0  0  0  0  0  0  0  0  0  0  0  0
    2.4554   -0.4615   -0.0816 H   0  0  0  0  0  0  0  0  0  0  0  0
    1.2484    1.7082    0.1148 H   0  0  0  0  0  0  0  0  0  0  0  0
   -1.2417    1.7095    0.1600 H   0  0  0  0  0  0  0  0  0  0  0  0
   -2.4573   -0.4590    0.0076 H   0  0  0  0  0  0  0  0  0  0  0  0
  1  6  2  0
  1  2  1  0
  2  3  2  0
  3  4  1  0
  4  5  2  0
  5  6  1  0
  1  7  1  0
  2  8  1  0
  3  9  1  0
  4 10  1  0
M  END
$$$$
