
     RDKit          3D

 27 28  0  0  1  0  0  0  0  0999 V2000
    0.6619    2.3285   -0.0083 O   0  0  0  0  0  0  0  0  0  0  0  0
    0.2593    1.1442   -0.1556 C   0  0  0  0  0  0  0  0  0  0  0  0
    0.9824    0.1411   -0.8630 N   0  0  0  0  0  0  0  0  0  0  0  0
    2.4076    0.4369   -1.8731 S   0  0  0  0  0  0  0  0  0  0  0  0
    3.6603   -0.3968   -0.8072 C   0  0  0  0  0  0  0  0  0  0  0  0
    3.0525   -1.9386   -0.1277 Cl  0  0  0  0  0  0  0  0  0  0  0  0
    5.0046   -0.8146   -1.9075 Cl  0  0  0  0  0  0  0  0  0  0  0  0
    4.1844    0.5430    0.3049 C   0  0  0  0  0  0  0  0  0  0  0  0
    2.9728    0.8567    1.5764 Cl  0  0  0  0  0  0  0  0  0  0  0  0
    5.6303   -0.1262    1.1194 Cl  0  0  0  0  0  0  0  0  0  0  0  0
    0.0483   -0.9193   -1.0548 C   0  0  0  0  0  0  0  0  0  0  0  0
   -1.3115   -0.5286   -0.5849 C   0  0  1  0  0  0  0  0  0  0  0  0
   -2.2324   -1.5420    0.0905 C   0  0  0  0  0  0  0  0  0  0  0  0
   -3.4153   -0.8004    0.7105 C   0  0  0  0  0  0  0  0  0  0  0  0
   -3.4186    0.5432    0.9339 C   0  0  0  0  0  0  0  0  0  0  0  0
   -2.2472    1.4510    0.5680 C   0  0  0  0  0  0  0  0  0  0  0  0
   -0.9985    0.5878    0.4101 C   0  0  2  0  0  0  0  0  0  0  0  0
    0.3063   -1.9652   -1.7073 O   0  0  0  0  0  0  0  0  0  0  0  0
    4.4720    1.5169   -0.1448 H   0  0  0  0  0  0  0  0  0  0  0  0
   -1.8416   -0.1154   -1.4756 H   0  0  0  0  0  0  0  0  0  0  0  0
   -2.6051   -2.2617   -0.6690 H   0  0  0  0  0  0  0  0  0  0  0  0
   -1.6906   -2.1042    0.8812 H   0  0  0  0  0  0  0  0  0  0  0  0
   -4.2802   -1.3818    1.0141 H   0  0  0  0  0  0  0  0  0  0  0  0
   -4.3049    0.9990    1.3642 H   0  0  0  0  0  0  0  0  0  0  0  0
   -2.0872    2.1961    1.3759 H   0  0  0  0  0  0  0  0  0  0  0  0
   -2.4753    1.9901   -0.3768 H   0  0  0  0  0  0  0  0  0  0  0  0
   -0.7342    0.1605    1.4063 H   0  0  0  0  0  0  0  0  0  0  0  0
  1  2  2  0
  2 17  1  0
  2  3  1  0
  3 11  1  0
  3  4  1  0
  4  5  1  0
  5  8  1  0
  5  7  1  0
  5  6  1  0
  8 10  1  0
  8  9  1  0
 11 12  1  0
 11 18  2  0
 12 13  1  0
 12 17  1  0
 13 14  1  0
 14 15  2  0
 15 16  1  0
 16 17  1  0
  8 19  1  0
 12 20  1  6
 13 21  1  0
 13 22  1  0
 14 23  1  0
 15 24  1  0
 16 25  1  0
 16 26  1  0
 17 27  1  1
M  END
$$$$
