N#CC(c1ccccc1)OC(C(C(O)C2O)O)OC2COC(C(C(O)C3O)O)OC3CO
     RDKit          3D

 59 61  0  0  1  0  0  0  0  0999 V2000
    1.5441    3.4773   -0.0910 N   0  0  0  0  0  0  0  0  0  0  0  0
    2.1506    2.4976    0.0346 C   0  0  0  0  0  0  0  0  0  0  0  0
    2.9193    1.2544    0.1923 C   0  0  1  0  0  0  0  0  0  0  0  0
    4.3453    1.5930    0.5410 C   0  0  0  0  0  0  0  0  0  0  0  0
    5.3993    1.2216   -0.3109 C   0  0  0  0  0  0  0  0  0  0  0  0
    6.7199    1.5647    0.0105 C   0  0  0  0  0  0  0  0  0  0  0  0
    7.0053    2.2469    1.1977 C   0  0  0  0  0  0  0  0  0  0  0  0
    5.9663    2.6035    2.0618 C   0  0  0  0  0  0  0  0  0  0  0  0
    4.6442    2.2799    1.7366 C   0  0  0  0  0  0  0  0  0  0  0  0
    2.3674    0.4944    1.2593 O   0  0  0  0  0  0  0  0  0  0  0  0
    1.5283   -0.5780    0.8370 C   0  0  2  0  0  0  0  0  0  0  0  0
    2.3626   -1.8706    0.6236 C   0  0  1  0  0  0  0  0  0  0  0  0
    1.4497   -3.0272    0.1635 C   0  0  1  0  0  0  0  0  0  0  0  0
    0.6446   -3.4449    1.2465 O   0  0  0  0  0  0  0  0  0  0  0  0
    0.5485   -2.5707   -1.0042 C   0  0  2  0  0  0  0  0  0  0  0  0
    1.3190   -2.3733   -2.1668 O   0  0  0  0  0  0  0  0  0  0  0  0
    3.3853   -1.6546   -0.3173 O   0  0  0  0  0  0  0  0  0  0  0  0
    0.7549   -0.2313   -0.3110 O   0  0  0  0  0  0  0  0  0  0  0  0
   -0.1795   -1.2561   -0.6236 C   0  0  1  0  0  0  0  0  0  0  0  0
   -1.0780   -0.7718   -1.7802 C   0  0  0  0  0  0  0  0  0  0  0  0
   -2.1989   -0.0587   -1.2875 O   0  0  0  0  0  0  0  0  0  0  0  0
   -3.2691   -0.9236   -0.9226 C   0  0  2  0  0  0  0  0  0  0  0  0
   -4.5866   -0.4393   -1.5527 C   0  0  1  0  0  0  0  0  0  0  0  0
   -5.0464    0.8700   -0.9019 C   0  0  1  0  0  0  0  0  0  0  0  0
   -6.3248    1.2137   -1.3852 O   0  0  0  0  0  0  0  0  0  0  0  0
   -5.1250    0.6711    0.6140 C   0  0  2  0  0  0  0  0  0  0  0  0
   -5.4399    1.8890    1.2364 O   0  0  0  0  0  0  0  0  0  0  0  0
   -4.3848   -0.2490   -2.9360 O   0  0  0  0  0  0  0  0  0  0  0  0
   -3.3443   -1.0708    0.4887 O   0  0  0  0  0  0  0  0  0  0  0  0
   -3.8142    0.0727    1.1930 C   0  0  1  0  0  0  0  0  0  0  0  0
   -2.6828    1.0837    1.5074 C   0  0  0  0  0  0  0  0  0  0  0  0
   -2.3998    1.9352    0.4312 O   0  0  0  0  0  0  0  0  0  0  0  0
    2.8993    0.7226   -0.7894 H   0  0  0  0  0  0  0  0  0  0  0  0
    5.1994    0.6872   -1.2302 H   0  0  0  0  0  0  0  0  0  0  0  0
    7.5296    1.2854   -0.6534 H   0  0  0  0  0  0  0  0  0  0  0  0
    8.0308    2.5069    1.4369 H   0  0  0  0  0  0  0  0  0  0  0  0
    6.1839    3.1275    2.9849 H   0  0  0  0  0  0  0  0  0  0  0  0
    3.8514    2.5807    2.4113 H   0  0  0  0  0  0  0  0  0  0  0  0
    0.8354   -0.7685    1.6924 H   0  0  0  0  0  0  0  0  0  0  0  0
    2.8223   -2.1483    1.6019 H   0  0  0  0  0  0  0  0  0  0  0  0
    2.1007   -3.8794   -0.1656 H   0  0  0  0  0  0  0  0  0  0  0  0
    0.3525   -4.3824    1.0544 H   0  0  0  0  0  0  0  0  0  0  0  0
   -0.2236   -3.3586   -1.1925 H   0  0  0  0  0  0  0  0  0  0  0  0
    1.5327   -3.2764   -2.5280 H   0  0  0  0  0  0  0  0  0  0  0  0
    4.0217   -2.4100   -0.2261 H   0  0  0  0  0  0  0  0  0  0  0  0
   -0.8291   -1.4611    0.2577 H   0  0  0  0  0  0  0  0  0  0  0  0
   -0.4886   -0.0703   -2.4223 H   0  0  0  0  0  0  0  0  0  0  0  0
   -1.3737   -1.5995   -2.4748 H   0  0  0  0  0  0  0  0  0  0  0  0
   -3.1341   -1.9581   -1.3205 H   0  0  0  0  0  0  0  0  0  0  0  0
   -5.3671   -1.2237   -1.3790 H   0  0  0  0  0  0  0  0  0  0  0  0
   -4.3198    1.6833   -1.1376 H   0  0  0  0  0  0  0  0  0  0  0  0
   -6.1831    1.7247   -2.2381 H   0  0  0  0  0  0  0  0  0  0  0  0
   -5.9517   -0.0605    0.8068 H   0  0  0  0  0  0  0  0  0  0  0  0
   -5.7398    1.6701    2.1569 H   0  0  0  0  0  0  0  0  0  0  0  0
   -5.2241   -0.5138   -3.4016 H   0  0  0  0  0  0  0  0  0  0  0  0
   -4.1105   -0.3150    2.1939 H   0  0  0  0  0  0  0  0  0  0  0  0
   -1.7579    0.5242    1.7641 H   0  0  0  0  0  0  0  0  0  0  0  0
   -2.9551    1.6767    2.4143 H   0  0  0  0  0  0  0  0  0  0  0  0
   -2.8820    2.7871    0.5992 H   0  0  0  0  0  0  0  0  0  0  0  0
  1  2  3  0
  2  3  1  0
  3  4  1  0
  3 10  1  0
  4  9  1  0
  4  5  2  0
  5  6  1  0
  6  7  2  0
  7  8  1  0
  8  9  2  0
 10 11  1  0
 11 12  1  0
 11 18  1  0
 12 13  1  0
 12 17  1  0
 13 15  1  0
 13 14  1  0
 15 19  1  0
 15 16  1  0
 18 19  1  0
 19 20  1  0
 20 21  1  0
 21 22  1  0
 22 23  1  0
 22 29  1  0
 23 24  1  0
 23 28  1  0
 24 26  1  0
 24 25  1  0
 26 30  1  0
 26 27  1  0
 29 30  1  0
 30 31  1  0
 31 32  1  0
  3 33  1  6
  5 34  1  0
  6 35  1  0
  7 36  1  0
  8 37  1  0
  9 38  1  0
 11 39  1  1
 12 40  1  1
 13 41  1  6
 14 42  1  0
 15 43  1  6
 16 44  1  0
 17 45  1  0
 19 46  1  1
 20 47  1  0
 20 48  1  0
 22 49  1  6
 23 50  1  6
 24 51  1  1
 25 52  1  0
 26 53  1  6
 27 54  1  0
 28 55  1  0
 30 56  1  1
 31 57  1  0
 31 58  1  0
 32 59  1  0
M  END
$$$$
