CCSCc1ccccc1OC(NC)=O
     RDKit          3D

 30 30  0  0  0  0  0  0  0  0999 V2000
    2.7723    1.9146    0.5281 C   0  0  0  0  0  0  0  0  0  0  0  0
    3.1728    0.6836    1.3316 C   0  0  0  0  0  0  0  0  0  0  0  0
    1.6903   -0.2400    1.8666 S   0  0  0  0  0  0  0  0  0  0  0  0
    1.5725   -1.2963    0.3792 C   0  0  0  0  0  0  0  0  0  0  0  0
    0.1946   -1.8953    0.2876 C   0  0  0  0  0  0  0  0  0  0  0  0
    0.0148   -3.2763    0.4759 C   0  0  0  0  0  0  0  0  0  0  0  0
   -1.2594   -3.8407    0.3891 C   0  0  0  0  0  0  0  0  0  0  0  0
   -2.3651   -3.0339    0.1189 C   0  0  0  0  0  0  0  0  0  0  0  0
   -2.2002   -1.6607   -0.0761 C   0  0  0  0  0  0  0  0  0  0  0  0
   -0.9186   -1.0812   -0.0113 C   0  0  0  0  0  0  0  0  0  0  0  0
   -0.7217    0.2973   -0.1965 O   0  0  0  0  0  0  0  0  0  0  0  0
   -1.4913    1.1279   -1.0199 C   0  0  0  0  0  0  0  0  0  0  0  0
   -1.3399    2.5458   -0.9092 N   0  0  0  0  0  0  0  0  0  0  0  0
   -2.0919    3.4702   -1.7481 C   0  0  0  0  0  0  0  0  0  0  0  0
   -2.2691    0.6403   -1.8854 O   0  0  0  0  0  0  0  0  0  0  0  0
    2.1185    2.5728    1.1388 H   0  0  0  0  0  0  0  0  0  0  0  0
    2.2303    1.6209   -0.3947 H   0  0  0  0  0  0  0  0  0  0  0  0
    3.6817    2.4828    0.2401 H   0  0  0  0  0  0  0  0  0  0  0  0
    3.7234    1.0116    2.2382 H   0  0  0  0  0  0  0  0  0  0  0  0
    3.8516    0.0385    0.7338 H   0  0  0  0  0  0  0  0  0  0  0  0
    1.7719   -0.7121   -0.5435 H   0  0  0  0  0  0  0  0  0  0  0  0
    2.3495   -2.0872    0.4516 H   0  0  0  0  0  0  0  0  0  0  0  0
    0.8600   -3.9168    0.6953 H   0  0  0  0  0  0  0  0  0  0  0  0
   -1.3909   -4.9045    0.5399 H   0  0  0  0  0  0  0  0  0  0  0  0
   -3.3536   -3.4720    0.0683 H   0  0  0  0  0  0  0  0  0  0  0  0
   -3.0773   -1.0520   -0.2477 H   0  0  0  0  0  0  0  0  0  0  0  0
   -0.6699    2.9282   -0.2046 H   0  0  0  0  0  0  0  0  0  0  0  0
   -3.1806    3.3294   -1.5814 H   0  0  0  0  0  0  0  0  0  0  0  0
   -1.8527    3.2885   -2.8171 H   0  0  0  0  0  0  0  0  0  0  0  0
   -1.8216    4.5164   -1.4924 H   0  0  0  0  0  0  0  0  0  0  0  0
  1  2  1  0
  2  3  1  0
  3  4  1  0
  4  5  1  0
  5  6  2  0
  5 10  1  0
  6  7  1  0
  7  8  2  0
  8  9  1  0
  9 10  2  0
 10 11  1  0
 11 12  1  0
 12 13  1  0
 12 15  2  0
 13 14  1  0
  1 16  1  0
  1 17  1  0
  1 18  1  0
  2 19  1  0
  2 20  1  0
  4 21  1  0
  4 22  1  0
  6 23  1  0
  7 24  1  0
  8 25  1  0
  9 26  1  0
 13 27  1  0
 14 28  1  0
 14 29  1  0
 14 30  1  0
M  END
$$$$
