COc2c1nccnc1ncn2
     RDKit          3D

 18 19  0  0  0  0  0  0  0  0999 V2000
    3.0513   -1.2102   -0.0652 C   0  0  0  0  0  0  0  0  0  0  0  0
    1.6406   -1.1655   -0.2429 O   0  0  0  0  0  0  0  0  0  0  0  0
    0.8694   -0.0500    0.1004 C   0  0  0  0  0  0  0  0  0  0  0  0
   -0.5127   -0.0693   -0.0991 C   0  0  0  0  0  0  0  0  0  0  0  0
   -1.1454   -1.1522   -0.6242 N   0  0  0  0  0  0  0  0  0  0  0  0
   -2.4925   -1.1498   -0.8102 C   0  0  0  0  0  0  0  0  0  0  0  0
   -3.2373   -0.0192   -0.4570 C   0  0  0  0  0  0  0  0  0  0  0  0
   -2.6060    1.0649    0.0684 N   0  0  0  0  0  0  0  0  0  0  0  0
   -1.2604    1.0661    0.2556 C   0  0  0  0  0  0  0  0  0  0  0  0
   -0.6372    2.1518    0.7804 N   0  0  0  0  0  0  0  0  0  0  0  0
    0.7093    2.1536    0.9680 C   0  0  0  0  0  0  0  0  0  0  0  0
    1.4494    1.0633    0.6305 N   0  0  0  0  0  0  0  0  0  0  0  0
    3.4311   -2.1938   -0.4097 H   0  0  0  0  0  0  0  0  0  0  0  0
    3.5353   -0.4084   -0.6621 H   0  0  0  0  0  0  0  0  0  0  0  0
    3.3034   -1.0831    1.0089 H   0  0  0  0  0  0  0  0  0  0  0  0
   -2.9825   -2.0185   -1.2289 H   0  0  0  0  0  0  0  0  0  0  0  0
   -4.3095   -0.0045   -0.5998 H   0  0  0  0  0  0  0  0  0  0  0  0
    1.1937    3.0247    1.3870 H   0  0  0  0  0  0  0  0  0  0  0  0
  1  2  1  0
  2  3  1  0
  3  4  2  0
  3 12  1  0
  4  9  1  0
  4  5  1  0
  5  6  2  0
  6  7  1  0
  7  8  2  0
  8  9  1  0
  9 10  2  0
 10 11  1  0
 11 12  2  0
  1 13  1  0
  1 14  1  0
  1 15  1  0
  6 16  1  0
  7 17  1  0
 11 18  1  0
M  END
$$$$
