ClC1C(Cl)C(Cl)C(Cl)C(Cl)C1Cl
     RDKit          3D

 18 18  0  0  0  0  0  0  0  0999 V2000
    1.2070   -0.7464    2.3268 Cl  0  0  0  0  0  0  0  0  0  0  0  0
    1.1649   -0.8395    0.5375 C   0  0  2  0  0  0  0  0  0  0  0  0
    1.3994    0.5649   -0.0661 C   0  0  1  0  0  0  0  0  0  0  0  0
    1.9918    0.4501   -1.7550 Cl  0  0  0  0  0  0  0  0  0  0  0  0
    0.1585    1.4767    0.0781 C   0  0  1  0  0  0  0  0  0  0  0  0
    0.4336    3.0868   -0.6568 Cl  0  0  0  0  0  0  0  0  0  0  0  0
   -1.1456    0.8319   -0.4381 C   0  0  1  0  0  0  0  0  0  0  0  0
   -1.2291    0.7697   -2.2315 Cl  0  0  0  0  0  0  0  0  0  0  0  0
   -1.3653   -0.5474    0.2193 C   0  0  1  0  0  0  0  0  0  0  0  0
   -2.8803   -1.3151   -0.3497 Cl  0  0  0  0  0  0  0  0  0  0  0  0
   -0.1556   -1.5005    0.0780 C   0  0  1  0  0  0  0  0  0  0  0  0
    0.0067   -2.1867   -1.5710 Cl  0  0  0  0  0  0  0  0  0  0  0  0
    2.0137   -1.4984    0.2522 H   0  0  0  0  0  0  0  0  0  0  0  0
    2.2324    1.0421    0.4952 H   0  0  0  0  0  0  0  0  0  0  0  0
    0.0185    1.6739    1.1640 H   0  0  0  0  0  0  0  0  0  0  0  0
   -1.9871    1.4874   -0.1235 H   0  0  0  0  0  0  0  0  0  0  0  0
   -1.5206   -0.3706    1.3066 H   0  0  0  0  0  0  0  0  0  0  0  0
   -0.3430   -2.3788    0.7338 H   0  0  0  0  0  0  0  0  0  0  0  0
  1  2  1  0
  2  3  1  0
  2 11  1  0
  3  5  1  0
  3  4  1  0
  5  7  1  0
  5  6  1  0
  7  9  1  0
  7  8  1  0
  9 11  1  0
  9 10  1  0
 11 12  1  0
  2 13  1  6
  3 14  1  1
  5 15  1  1
  7 16  1  1
  9 17  1  1
 11 18  1  1
M  END
$$$$
