Fc1c(F)cc(F)c(F)c1
     RDKit          3D

 12 12  0  0  0  0  0  0  0  0999 V2000
   -2.6996    0.5530   -0.0183 F   0  0  0  0  0  0  0  0  0  0  0  0
   -1.3715    0.2796   -0.0093 C   0  0  0  0  0  0  0  0  0  0  0  0
   -0.9278   -1.0479    0.0166 C   0  0  0  0  0  0  0  0  0  0  0  0
   -1.8248   -2.0648    0.0327 F   0  0  0  0  0  0  0  0  0  0  0  0
    0.4434   -1.3267    0.0259 C   0  0  0  0  0  0  0  0  0  0  0  0
    1.3715   -0.2796    0.0093 C   0  0  0  0  0  0  0  0  0  0  0  0
    2.6996   -0.5530    0.0183 F   0  0  0  0  0  0  0  0  0  0  0  0
    0.9278    1.0479   -0.0166 C   0  0  0  0  0  0  0  0  0  0  0  0
    1.8248    2.0648   -0.0327 F   0  0  0  0  0  0  0  0  0  0  0  0
   -0.4434    1.3267   -0.0259 C   0  0  0  0  0  0  0  0  0  0  0  0
    0.7864   -2.3532    0.0459 H   0  0  0  0  0  0  0  0  0  0  0  0
   -0.7864    2.3532   -0.0459 H   0  0  0  0  0  0  0  0  0  0  0  0
  1  2  1  0
  2 10  2  0
  2  3  1  0
  3  4  1  0
  3  5  2  0
  5  6  1  0
  6  8  2  0
  6  7  1  0
  8 10  1  0
  8  9  1  0
  5 11  1  0
 10 12  1  0
M  END
$$$$
