ClCc(cc1)ccc1F
     RDKit          3D

 15 15  0  0  0  0  0  0  0  0999 V2000
    2.9126   -1.7501    0.3233 Cl  0  0  0  0  0  0  0  0  0  0  0  0
    2.2197   -0.1041    0.2272 C   0  0  0  0  0  0  0  0  0  0  0  0
    0.7162   -0.0466    0.0735 C   0  0  0  0  0  0  0  0  0  0  0  0
    0.1078    1.2182   -0.0081 C   0  0  0  0  0  0  0  0  0  0  0  0
   -1.2779    1.3345   -0.1507 C   0  0  0  0  0  0  0  0  0  0  0  0
   -0.0980   -1.1969    0.0087 C   0  0  0  0  0  0  0  0  0  0  0  0
   -1.4841   -1.0746   -0.1340 C   0  0  0  0  0  0  0  0  0  0  0  0
   -2.0738    0.1889   -0.2137 C   0  0  0  0  0  0  0  0  0  0  0  0
   -3.4177    0.3030   -0.3520 F   0  0  0  0  0  0  0  0  0  0  0  0
    2.5088    0.4388    1.1518 H   0  0  0  0  0  0  0  0  0  0  0  0
    2.6905    0.4108   -0.6368 H   0  0  0  0  0  0  0  0  0  0  0  0
    0.7101    2.1175    0.0391 H   0  0  0  0  0  0  0  0  0  0  0  0
   -1.7336    2.3144   -0.2123 H   0  0  0  0  0  0  0  0  0  0  0  0
    0.3205   -2.1914    0.0668 H   0  0  0  0  0  0  0  0  0  0  0  0
   -2.1012   -1.9627   -0.1828 H   0  0  0  0  0  0  0  0  0  0  0  0
  1  2  1  0
  2  3  1  0
  3  4  2  0
  3  6  1  0
  4  5  1  0
  5  8  2  0
  6  7  2  0
  7  8  1  0
  8  9  1  0
  2 10  1  0
  2 11  1  0
  4 12  1  0
  5 13  1  0
  6 14  1  0
  7 15  1  0
M  END
$$$$
