O=C(NC(Nc2ccc(Cl)cc2)=O)c1c(F)cccc1F
     RDKit          3D

 30 31  0  0  0  0  0  0  0  0999 V2000
   -1.8308   -0.8472    1.8221 O   0  0  0  0  0  0  0  0  0  0  0  0
   -1.9017   -0.3888    0.6492 C   0  0  0  0  0  0  0  0  0  0  0  0
   -0.7071   -0.2227   -0.1341 N   0  0  0  0  0  0  0  0  0  0  0  0
    0.6211   -0.2893    0.4080 C   0  0  0  0  0  0  0  0  0  0  0  0
    1.7490   -0.2217   -0.4784 N   0  0  0  0  0  0  0  0  0  0  0  0
    3.1101   -0.0590   -0.0436 C   0  0  0  0  0  0  0  0  0  0  0  0
    3.4357    0.7365    1.0709 C   0  0  0  0  0  0  0  0  0  0  0  0
    4.7701    0.8975    1.4571 C   0  0  0  0  0  0  0  0  0  0  0  0
    5.7912    0.2790    0.7292 C   0  0  0  0  0  0  0  0  0  0  0  0
    7.4644    0.4842    1.2144 Cl  0  0  0  0  0  0  0  0  0  0  0  0
    5.4773   -0.4941   -0.3927 C   0  0  0  0  0  0  0  0  0  0  0  0
    4.1441   -0.6560   -0.7817 C   0  0  0  0  0  0  0  0  0  0  0  0
    0.7966   -0.4313    1.6489 O   0  0  0  0  0  0  0  0  0  0  0  0
   -3.2288   -0.0594    0.0786 C   0  0  0  0  0  0  0  0  0  0  0  0
   -4.3532   -0.8495    0.3940 C   0  0  0  0  0  0  0  0  0  0  0  0
   -4.2360   -1.9355    1.2000 F   0  0  0  0  0  0  0  0  0  0  0  0
   -5.6065   -0.5395   -0.1437 C   0  0  0  0  0  0  0  0  0  0  0  0
   -5.7553    0.5597   -0.9909 C   0  0  0  0  0  0  0  0  0  0  0  0
   -4.6521    1.3569   -1.3003 C   0  0  0  0  0  0  0  0  0  0  0  0
   -3.3937    1.0558   -0.7692 C   0  0  0  0  0  0  0  0  0  0  0  0
   -2.3532    1.8813   -1.0487 F   0  0  0  0  0  0  0  0  0  0  0  0
   -0.8038   -0.0715   -1.1631 H   0  0  0  0  0  0  0  0  0  0  0  0
    1.5754   -0.3874   -1.4956 H   0  0  0  0  0  0  0  0  0  0  0  0
    2.6659    1.2543    1.6271 H   0  0  0  0  0  0  0  0  0  0  0  0
    5.0094    1.5105    2.3168 H   0  0  0  0  0  0  0  0  0  0  0  0
    6.2646   -0.9680   -0.9650 H   0  0  0  0  0  0  0  0  0  0  0  0
    3.9144   -1.2555   -1.6537 H   0  0  0  0  0  0  0  0  0  0  0  0
   -6.4648   -1.1544    0.0950 H   0  0  0  0  0  0  0  0  0  0  0  0
   -6.7273    0.7970   -1.4038 H   0  0  0  0  0  0  0  0  0  0  0  0
   -4.7747    2.2164   -1.9467 H   0  0  0  0  0  0  0  0  0  0  0  0
  1  2  2  0
  2 14  1  0
  2  3  1  0
  3  4  1  0
  4  5  1  0
  4 13  2  0
  5  6  1  0
  6 12  1  0
  6  7  2  0
  7  8  1  0
  8  9  2  0
  9 11  1  0
  9 10  1  0
 11 12  2  0
 14 20  1  0
 14 15  2  0
 15 16  1  0
 15 17  1  0
 17 18  2  0
 18 19  1  0
 19 20  2  0
 20 21  1  0
  3 22  1  0
  5 23  1  0
  7 24  1  0
  8 25  1  0
 11 26  1  0
 12 27  1  0
 17 28  1  0
 18 29  1  0
 19 30  1  0
M  END
$$$$
