OC(CCC(c1ccc(c2ccccc2)cc1)=O)=O
     RDKit          3D

 33 34  0  0  0  0  0  0  0  0999 V2000
    6.6274    0.4353    0.5739 O   0  0  0  0  0  0  0  0  0  0  0  0
    5.6159   -0.5207    0.5737 C   0  0  0  0  0  0  0  0  0  0  0  0
    4.5608   -0.5155   -0.4940 C   0  0  0  0  0  0  0  0  0  0  0  0
    3.5621    0.6368   -0.3148 C   0  0  0  0  0  0  0  0  0  0  0  0
    2.6290    0.4019    0.8490 C   0  0  0  0  0  0  0  0  0  0  0  0
    1.1619    0.2806    0.6740 C   0  0  0  0  0  0  0  0  0  0  0  0
    0.4758    1.0265   -0.3003 C   0  0  0  0  0  0  0  0  0  0  0  0
   -0.9094    0.9042   -0.4422 C   0  0  0  0  0  0  0  0  0  0  0  0
   -1.6404    0.0394    0.3907 C   0  0  0  0  0  0  0  0  0  0  0  0
   -3.1122   -0.0918    0.2388 C   0  0  0  0  0  0  0  0  0  0  0  0
   -3.7327   -1.3515    0.3424 C   0  0  0  0  0  0  0  0  0  0  0  0
   -5.1183   -1.4726    0.1986 C   0  0  0  0  0  0  0  0  0  0  0  0
   -5.8990   -0.3413   -0.0484 C   0  0  0  0  0  0  0  0  0  0  0  0
   -5.2957    0.9140   -0.1526 C   0  0  0  0  0  0  0  0  0  0  0  0
   -3.9105    1.0410   -0.0107 C   0  0  0  0  0  0  0  0  0  0  0  0
   -0.9554   -0.6944    1.3743 C   0  0  0  0  0  0  0  0  0  0  0  0
    0.4292   -0.5701    1.5177 C   0  0  0  0  0  0  0  0  0  0  0  0
    3.1157    0.3006    2.0081 O   0  0  0  0  0  0  0  0  0  0  0  0
    5.5826   -1.3868    1.4871 O   0  0  0  0  0  0  0  0  0  0  0  0
    6.6781    1.1440   -0.1482 H   0  0  0  0  0  0  0  0  0  0  0  0
    5.0640   -0.4050   -1.4785 H   0  0  0  0  0  0  0  0  0  0  0  0
    4.0199   -1.4876   -0.5060 H   0  0  0  0  0  0  0  0  0  0  0  0
    2.9913    0.7221   -1.2619 H   0  0  0  0  0  0  0  0  0  0  0  0
    4.1018    1.5970   -0.1664 H   0  0  0  0  0  0  0  0  0  0  0  0
    0.9999    1.7250   -0.9389 H   0  0  0  0  0  0  0  0  0  0  0  0
   -1.4075    1.4796   -1.2124 H   0  0  0  0  0  0  0  0  0  0  0  0
   -3.1453   -2.2441    0.5167 H   0  0  0  0  0  0  0  0  0  0  0  0
   -5.5866   -2.4454    0.2756 H   0  0  0  0  0  0  0  0  0  0  0  0
   -6.9714   -0.4373   -0.1589 H   0  0  0  0  0  0  0  0  0  0  0  0
   -5.9023    1.7906   -0.3402 H   0  0  0  0  0  0  0  0  0  0  0  0
   -3.4664    2.0261   -0.0780 H   0  0  0  0  0  0  0  0  0  0  0  0
   -1.4927   -1.3524    2.0458 H   0  0  0  0  0  0  0  0  0  0  0  0
    0.9305   -1.1483    2.2844 H   0  0  0  0  0  0  0  0  0  0  0  0
  1  2  1  0
  2  3  1  0
  2 19  2  0
  3  4  1  0
  4  5  1  0
  5  6  1  0
  5 18  2  0
  6 17  2  0
  6  7  1  0
  7  8  2  0
  8  9  1  0
  9 16  2  0
  9 10  1  0
 10 15  1  0
 10 11  2  0
 11 12  1  0
 12 13  2  0
 13 14  1  0
 14 15  2  0
 16 17  1  0
  1 20  1  0
  3 21  1  0
  3 22  1  0
  4 23  1  0
  4 24  1  0
  7 25  1  0
  8 26  1  0
 11 27  1  0
 12 28  1  0
 13 29  1  0
 14 30  1  0
 15 31  1  0
 16 32  1  0
 17 33  1  0
M  END
$$$$
