CCN(CCNC(c1c(OC)cc(N)c(Cl)c1)=O)CC
     RDKit          3D

 42 42  0  0  0  0  0  0  0  0999 V2000
   -3.9471   -1.7987    0.5295 C   0  0  0  0  0  0  0  0  0  0  0  0
   -3.1627   -0.6036    1.0925 C   0  0  0  0  0  0  0  0  0  0  0  0
   -2.8447    0.4439    0.0919 N   0  0  0  0  0  0  0  0  0  0  0  0
   -1.9061    0.0030   -0.9680 C   0  0  0  0  0  0  0  0  0  0  0  0
   -0.4666   -0.1176   -0.4369 C   0  0  0  0  0  0  0  0  0  0  0  0
   -0.1766   -1.4644    0.0639 N   0  0  0  0  0  0  0  0  0  0  0  0
    0.9690   -1.7492    0.8797 C   0  0  0  0  0  0  0  0  0  0  0  0
    2.1294   -0.8390    0.9332 C   0  0  0  0  0  0  0  0  0  0  0  0
    2.8567   -0.5261   -0.2299 C   0  0  0  0  0  0  0  0  0  0  0  0
    2.4856   -1.1252   -1.4455 O   0  0  0  0  0  0  0  0  0  0  0  0
    3.1201   -0.8794   -2.6960 C   0  0  0  0  0  0  0  0  0  0  0  0
    3.9468    0.3610   -0.1410 C   0  0  0  0  0  0  0  0  0  0  0  0
    4.3263    0.9134    1.0911 C   0  0  0  0  0  0  0  0  0  0  0  0
    5.4425    1.8112    1.1436 N   0  0  0  0  0  0  0  0  0  0  0  0
    3.6090    0.5704    2.2531 C   0  0  0  0  0  0  0  0  0  0  0  0
    4.0372    1.2182    3.8321 Cl  0  0  0  0  0  0  0  0  0  0  0  0
    2.5223   -0.3046    2.1675 C   0  0  0  0  0  0  0  0  0  0  0  0
    0.9771   -2.7921    1.5867 O   0  0  0  0  0  0  0  0  0  0  0  0
   -4.0591    1.0789   -0.4668 C   0  0  0  0  0  0  0  0  0  0  0  0
   -3.8236    2.5706   -0.6865 C   0  0  0  0  0  0  0  0  0  0  0  0
   -3.3234   -2.4046   -0.1569 H   0  0  0  0  0  0  0  0  0  0  0  0
   -4.2544   -2.4573    1.3690 H   0  0  0  0  0  0  0  0  0  0  0  0
   -4.8643   -1.4681    0.0007 H   0  0  0  0  0  0  0  0  0  0  0  0
   -2.2329   -0.9680    1.5748 H   0  0  0  0  0  0  0  0  0  0  0  0
   -3.7572   -0.1490    1.9150 H   0  0  0  0  0  0  0  0  0  0  0  0
   -2.2417   -0.9335   -1.4600 H   0  0  0  0  0  0  0  0  0  0  0  0
   -1.8764    0.7650   -1.7772 H   0  0  0  0  0  0  0  0  0  0  0  0
    0.2378    0.1167   -1.2619 H   0  0  0  0  0  0  0  0  0  0  0  0
   -0.3049    0.6301    0.3704 H   0  0  0  0  0  0  0  0  0  0  0  0
   -0.8767   -2.2291   -0.0651 H   0  0  0  0  0  0  0  0  0  0  0  0
    3.0393    0.1963   -2.9597 H   0  0  0  0  0  0  0  0  0  0  0  0
    2.6140   -1.4763   -3.4820 H   0  0  0  0  0  0  0  0  0  0  0  0
    4.1868   -1.1844   -2.6497 H   0  0  0  0  0  0  0  0  0  0  0  0
    4.5136    0.6214   -1.0246 H   0  0  0  0  0  0  0  0  0  0  0  0
    5.9682    2.0556    0.2747 H   0  0  0  0  0  0  0  0  0  0  0  0
    5.7615    2.2451    2.0370 H   0  0  0  0  0  0  0  0  0  0  0  0
    1.9706   -0.5576    3.0653 H   0  0  0  0  0  0  0  0  0  0  0  0
   -4.9198    0.9890    0.2337 H   0  0  0  0  0  0  0  0  0  0  0  0
   -4.3615    0.5992   -1.4251 H   0  0  0  0  0  0  0  0  0  0  0  0
   -3.0332    2.7407   -1.4461 H   0  0  0  0  0  0  0  0  0  0  0  0
   -4.7611    3.0469   -1.0435 H   0  0  0  0  0  0  0  0  0  0  0  0
   -3.5201    3.0512    0.2677 H   0  0  0  0  0  0  0  0  0  0  0  0
  1  2  1  0
  2  3  1  0
  3 19  1  0
  3  4  1  0
  4  5  1  0
  5  6  1  0
  6  7  1  0
  7  8  1  0
  7 18  2  0
  8 17  2  0
  8  9  1  0
  9 12  2  0
  9 10  1  0
 10 11  1  0
 12 13  1  0
 13 15  2  0
 13 14  1  0
 15 17  1  0
 15 16  1  0
 19 20  1  0
  1 21  1  0
  1 22  1  0
  1 23  1  0
  2 24  1  0
  2 25  1  0
  4 26  1  0
  4 27  1  0
  5 28  1  0
  5 29  1  0
  6 30  1  0
 11 31  1  0
 11 32  1  0
 11 33  1  0
 12 34  1  0
 14 35  1  0
 14 36  1  0
 17 37  1  0
 19 38  1  0
 19 39  1  0
 20 40  1  0
 20 41  1  0
 20 42  1  0
M  END
$$$$
