Fc1cc(F)ccc1
     RDKit          3D

 12 12  0  0  0  0  0  0  0  0999 V2000
   -2.1355   -1.7107   -0.2066 F   0  0  0  0  0  0  0  0  0  0  0  0
   -1.0864   -0.8580   -0.1037 C   0  0  0  0  0  0  0  0  0  0  0  0
    0.2227   -1.3499   -0.1522 C   0  0  0  0  0  0  0  0  0  0  0  0
    1.3055   -0.4698   -0.0460 C   0  0  0  0  0  0  0  0  0  0  0  0
    2.5739   -0.9465   -0.0929 F   0  0  0  0  0  0  0  0  0  0  0  0
    1.0788    0.9023    0.1087 C   0  0  0  0  0  0  0  0  0  0  0  0
   -0.2300    1.3940    0.1571 C   0  0  0  0  0  0  0  0  0  0  0  0
   -1.3125    0.5142    0.0510 C   0  0  0  0  0  0  0  0  0  0  0  0
    0.3979   -2.4114   -0.2718 H   0  0  0  0  0  0  0  0  0  0  0  0
    1.9152    1.5843    0.1910 H   0  0  0  0  0  0  0  0  0  0  0  0
   -0.4051    2.4553    0.2768 H   0  0  0  0  0  0  0  0  0  0  0  0
   -2.3245    0.8963    0.0886 H   0  0  0  0  0  0  0  0  0  0  0  0
  1  2  1  0
  2  8  2  0
  2  3  1  0
  3  4  2  0
  4  6  1  0
  4  5  1  0
  6  7  2  0
  7  8  1  0
  3  9  1  0
  6 10  1  0
  7 11  1  0
  8 12  1  0
M  END
$$$$
