CC(N(C(Nc1ccc(Cl)cc1)=O)C)C#C
     RDKit          3D

 29 29  0  0  1  0  0  0  0  0999 V2000
   -3.0466    0.1706    1.7198 C   0  0  0  0  0  0  0  0  0  0  0  0
   -3.0768    0.1558    0.1889 C   0  0  1  0  0  0  0  0  0  0  0  0
   -1.8069    0.6622   -0.3735 N   0  0  0  0  0  0  0  0  0  0  0  0
   -0.5635   -0.0672   -0.2159 C   0  0  0  0  0  0  0  0  0  0  0  0
    0.6587    0.4209   -0.7988 N   0  0  0  0  0  0  0  0  0  0  0  0
    1.9669    0.0110   -0.3632 C   0  0  0  0  0  0  0  0  0  0  0  0
    2.2237   -0.3153    0.9817 C   0  0  0  0  0  0  0  0  0  0  0  0
    3.5099   -0.6883    1.3843 C   0  0  0  0  0  0  0  0  0  0  0  0
    4.5530   -0.7272    0.4540 C   0  0  0  0  0  0  0  0  0  0  0  0
    6.1660   -1.1936    0.9618 Cl  0  0  0  0  0  0  0  0  0  0  0  0
    4.3106   -0.3843   -0.8796 C   0  0  0  0  0  0  0  0  0  0  0  0
    3.0257   -0.0102   -1.2849 C   0  0  0  0  0  0  0  0  0  0  0  0
   -0.5519   -1.1623    0.4105 O   0  0  0  0  0  0  0  0  0  0  0  0
   -1.7992    1.9579   -1.0638 C   0  0  0  0  0  0  0  0  0  0  0  0
   -3.3741   -1.1935   -0.3194 C   0  0  0  0  0  0  0  0  0  0  0  0
   -3.6181   -2.2980   -0.7367 C   0  0  0  0  0  0  0  0  0  0  0  0
   -4.0465   -0.1005    2.1219 H   0  0  0  0  0  0  0  0  0  0  0  0
   -2.3017   -0.5465    2.1222 H   0  0  0  0  0  0  0  0  0  0  0  0
   -2.7914    1.1900    2.0794 H   0  0  0  0  0  0  0  0  0  0  0  0
   -3.9249    0.8016   -0.1252 H   0  0  0  0  0  0  0  0  0  0  0  0
    0.6017    1.0270   -1.6468 H   0  0  0  0  0  0  0  0  0  0  0  0
    1.4394   -0.2605    1.7250 H   0  0  0  0  0  0  0  0  0  0  0  0
    3.6959   -0.9387    2.4210 H   0  0  0  0  0  0  0  0  0  0  0  0
    5.1164   -0.4053   -1.6023 H   0  0  0  0  0  0  0  0  0  0  0  0
    2.8521    0.2547   -2.3203 H   0  0  0  0  0  0  0  0  0  0  0  0
   -1.0386    2.6253   -0.6058 H   0  0  0  0  0  0  0  0  0  0  0  0
   -1.5681    1.8092   -2.1393 H   0  0  0  0  0  0  0  0  0  0  0  0
   -2.7800    2.4729   -0.9922 H   0  0  0  0  0  0  0  0  0  0  0  0
   -3.8317   -3.2676   -1.1029 H   0  0  0  0  0  0  0  0  0  0  0  0
  1  2  1  0
  2 15  1  0
  2  3  1  0
  3 14  1  0
  3  4  1  0
  4  5  1  0
  4 13  2  0
  5  6  1  0
  6 12  2  0
  6  7  1  0
  7  8  2  0
  8  9  1  0
  9 11  2  0
  9 10  1  0
 11 12  1  0
 15 16  3  0
  1 17  1  0
  1 18  1  0
  1 19  1  0
  2 20  1  6
  5 21  1  0
  7 22  1  0
  8 23  1  0
 11 24  1  0
 12 25  1  0
 14 26  1  0
 14 27  1  0
 14 28  1  0
 16 29  1  0
M  END
$$$$
