Clc1cc(c2ccccc2Cl)c(Cl)cc1
     RDKit          3D

 22 23  0  0  0  0  0  0  0  0999 V2000
    3.8497   -2.2063    1.1482 Cl  0  0  0  0  0  0  0  0  0  0  0  0
    2.8920   -0.8944    0.4860 C   0  0  0  0  0  0  0  0  0  0  0  0
    1.4958   -0.9720    0.4989 C   0  0  0  0  0  0  0  0  0  0  0  0
    0.7209    0.0735   -0.0298 C   0  0  0  0  0  0  0  0  0  0  0  0
   -0.7537   -0.0274    0.0094 C   0  0  0  0  0  0  0  0  0  0  0  0
   -1.4808    0.8404    0.8412 C   0  0  0  0  0  0  0  0  0  0  0  0
   -2.8738    0.7540    0.9068 C   0  0  0  0  0  0  0  0  0  0  0  0
   -3.5524   -0.1993    0.1452 C   0  0  0  0  0  0  0  0  0  0  0  0
   -2.8399   -1.0679   -0.6853 C   0  0  0  0  0  0  0  0  0  0  0  0
   -1.4436   -0.9897   -0.7583 C   0  0  0  0  0  0  0  0  0  0  0  0
   -0.5944   -2.0836   -1.8456 Cl  0  0  0  0  0  0  0  0  0  0  0  0
    1.3641    1.2057   -0.5728 C   0  0  0  0  0  0  0  0  0  0  0  0
    0.4512    2.5336   -1.2822 Cl  0  0  0  0  0  0  0  0  0  0  0  0
    2.7624    1.2748   -0.5810 C   0  0  0  0  0  0  0  0  0  0  0  0
    3.5238    0.2294   -0.0531 C   0  0  0  0  0  0  0  0  0  0  0  0
    1.0134   -1.8438    0.9248 H   0  0  0  0  0  0  0  0  0  0  0  0
   -0.9668    1.5803    1.4427 H   0  0  0  0  0  0  0  0  0  0  0  0
   -3.4274    1.4257    1.5502 H   0  0  0  0  0  0  0  0  0  0  0  0
   -4.6315   -0.2644    0.1971 H   0  0  0  0  0  0  0  0  0  0  0  0
   -3.3752   -1.8004   -1.2760 H   0  0  0  0  0  0  0  0  0  0  0  0
    3.2616    2.1387   -1.0012 H   0  0  0  0  0  0  0  0  0  0  0  0
    4.6045    0.2931   -0.0653 H   0  0  0  0  0  0  0  0  0  0  0  0
  1  2  1  0
  2 15  2  0
  2  3  1  0
  3  4  2  0
  4 12  1  0
  4  5  1  0
  5  6  2  0
  5 10  1  0
  6  7  1  0
  7  8  2  0
  8  9  1  0
  9 10  2  0
 10 11  1  0
 12 14  2  0
 12 13  1  0
 14 15  1  0
  3 16  1  0
  6 17  1  0
  7 18  1  0
  8 19  1  0
  9 20  1  0
 14 21  1  0
 15 22  1  0
M  END
$$$$
