Clc1ccc(Cl)c(c1Cl)c2c(Cl)ccc(Cl)c2Cl
     RDKit          3D

 22 23  0  0  0  0  0  0  0  0999 V2000
   -3.9832   -2.3670    0.2052 Cl  0  0  0  0  0  0  0  0  0  0  0  0
   -2.9371   -0.9714   -0.0236 C   0  0  0  0  0  0  0  0  0  0  0  0
   -3.5202    0.2601   -0.3347 C   0  0  0  0  0  0  0  0  0  0  0  0
   -2.7234    1.3894   -0.5233 C   0  0  0  0  0  0  0  0  0  0  0  0
   -1.3340    1.3005   -0.4032 C   0  0  0  0  0  0  0  0  0  0  0  0
   -0.3708    2.7537   -0.6500 Cl  0  0  0  0  0  0  0  0  0  0  0  0
   -0.7323    0.0652   -0.0900 C   0  0  0  0  0  0  0  0  0  0  0  0
   -1.5401   -1.0766    0.1006 C   0  0  0  0  0  0  0  0  0  0  0  0
   -0.8053   -2.6334    0.4941 Cl  0  0  0  0  0  0  0  0  0  0  0  0
    0.7391   -0.0315    0.0378 C   0  0  0  0  0  0  0  0  0  0  0  0
    1.5269   -0.3365   -1.0903 C   0  0  0  0  0  0  0  0  0  0  0  0
    0.7997   -0.6105   -2.6704 Cl  0  0  0  0  0  0  0  0  0  0  0  0
    2.9160   -0.4271   -0.9674 C   0  0  0  0  0  0  0  0  0  0  0  0
    3.5289   -0.2170    0.2679 C   0  0  0  0  0  0  0  0  0  0  0  0
    2.7599    0.0862    1.3950 C   0  0  0  0  0  0  0  0  0  0  0  0
    3.5780    0.3426    2.9310 Cl  0  0  0  0  0  0  0  0  0  0  0  0
    1.3608    0.1808    1.2870 C   0  0  0  0  0  0  0  0  0  0  0  0
    0.3911    0.5636    2.7124 Cl  0  0  0  0  0  0  0  0  0  0  0  0
   -4.5954    0.3438   -0.4309 H   0  0  0  0  0  0  0  0  0  0  0  0
   -3.1889    2.3368   -0.7638 H   0  0  0  0  0  0  0  0  0  0  0  0
    3.5242   -0.6613   -1.8319 H   0  0  0  0  0  0  0  0  0  0  0  0
    4.6060   -0.2905    0.3483 H   0  0  0  0  0  0  0  0  0  0  0  0
  1  2  1  0
  2  3  2  0
  2  8  1  0
  3  4  1  0
  4  5  2  0
  5  7  1  0
  5  6  1  0
  7 10  1  0
  7  8  2  0
  8  9  1  0
 10 11  2  0
 10 17  1  0
 11 13  1  0
 11 12  1  0
 13 14  2  0
 14 15  1  0
 15 16  1  0
 15 17  2  0
 17 18  1  0
  3 19  1  0
  4 20  1  0
 13 21  1  0
 14 22  1  0
M  END
$$$$
