Clc1ccc(c2cccc(Cl)c2Cl)cc1
     RDKit          3D

 22 23  0  0  0  0  0  0  0  0999 V2000
   -5.2382    0.5868    0.2680 Cl  0  0  0  0  0  0  0  0  0  0  0  0
   -3.4976    0.3882    0.1812 C   0  0  0  0  0  0  0  0  0  0  0  0
   -2.6828    1.4818   -0.1292 C   0  0  0  0  0  0  0  0  0  0  0  0
   -1.2951    1.3252   -0.1980 C   0  0  0  0  0  0  0  0  0  0  0  0
   -0.7112    0.0685    0.0353 C   0  0  0  0  0  0  0  0  0  0  0  0
    0.7585   -0.0993   -0.0174 C   0  0  0  0  0  0  0  0  0  0  0  0
    1.4278   -0.5783    1.1212 C   0  0  0  0  0  0  0  0  0  0  0  0
    2.8144   -0.7339    1.1149 C   0  0  0  0  0  0  0  0  0  0  0  0
    3.5487   -0.4186   -0.0279 C   0  0  0  0  0  0  0  0  0  0  0  0
    2.9008    0.0473   -1.1762 C   0  0  0  0  0  0  0  0  0  0  0  0
    3.8694    0.4137   -2.5986 Cl  0  0  0  0  0  0  0  0  0  0  0  0
    1.5017    0.2071   -1.1814 C   0  0  0  0  0  0  0  0  0  0  0  0
    0.6908    0.7269   -2.6621 Cl  0  0  0  0  0  0  0  0  0  0  0  0
   -1.5350   -1.0224    0.3593 C   0  0  0  0  0  0  0  0  0  0  0  0
   -2.9225   -0.8628    0.4273 C   0  0  0  0  0  0  0  0  0  0  0  0
   -3.1227    2.4536   -0.3131 H   0  0  0  0  0  0  0  0  0  0  0  0
   -0.6755    2.1843   -0.4241 H   0  0  0  0  0  0  0  0  0  0  0  0
    0.8750   -0.8196    2.0211 H   0  0  0  0  0  0  0  0  0  0  0  0
    3.3212   -1.0975    1.9995 H   0  0  0  0  0  0  0  0  0  0  0  0
    4.6242   -0.5425   -0.0222 H   0  0  0  0  0  0  0  0  0  0  0  0
   -1.1034   -1.9973    0.5507 H   0  0  0  0  0  0  0  0  0  0  0  0
   -3.5488   -1.7112    0.6717 H   0  0  0  0  0  0  0  0  0  0  0  0
  1  2  1  0
  2 15  2  0
  2  3  1  0
  3  4  2  0
  4  5  1  0
  5 14  2  0
  5  6  1  0
  6  7  2  0
  6 12  1  0
  7  8  1  0
  8  9  2  0
  9 10  1  0
 10 11  1  0
 10 12  2  0
 12 13  1  0
 14 15  1  0
  3 16  1  0
  4 17  1  0
  7 18  1  0
  8 19  1  0
  9 20  1  0
 14 21  1  0
 15 22  1  0
M  END
$$$$
