CNC(ON=C(C(C)(C)C)CSC)=O
     RDKit          3D

 32 31  0  0  0  0  0  0  0  0999 V2000
    5.3415    0.8479    0.4276 C   0  0  0  0  0  0  0  0  0  0  0  0
    4.0472    0.1791    0.3897 N   0  0  0  0  0  0  0  0  0  0  0  0
    2.8503    0.8675    0.0165 C   0  0  0  0  0  0  0  0  0  0  0  0
    1.6413    0.1760   -0.0013 O   0  0  0  0  0  0  0  0  0  0  0  0
    0.4688    0.8049   -0.3550 N   0  0  0  0  0  0  0  0  0  0  0  0
   -0.6949    0.2186   -0.3898 C   0  0  0  0  0  0  0  0  0  0  0  0
   -0.8774   -1.2654    0.0087 C   0  0  0  0  0  0  0  0  0  0  0  0
   -2.3483   -1.7333   -0.1263 C   0  0  0  0  0  0  0  0  0  0  0  0
   -0.0250   -2.1729   -0.9067 C   0  0  0  0  0  0  0  0  0  0  0  0
   -0.4627   -1.4687    1.4826 C   0  0  0  0  0  0  0  0  0  0  0  0
   -1.8602    1.1001   -0.7655 C   0  0  0  0  0  0  0  0  0  0  0  0
   -2.6369    1.7671    0.7447 S   0  0  0  0  0  0  0  0  0  0  0  0
   -3.9380    2.6768   -0.1458 C   0  0  0  0  0  0  0  0  0  0  0  0
    2.8874    2.0897   -0.2938 O   0  0  0  0  0  0  0  0  0  0  0  0
    6.1279    0.1296    0.7417 H   0  0  0  0  0  0  0  0  0  0  0  0
    5.5934    1.2382   -0.5809 H   0  0  0  0  0  0  0  0  0  0  0  0
    5.3106    1.6871    1.1540 H   0  0  0  0  0  0  0  0  0  0  0  0
    3.9897   -0.8330    0.6423 H   0  0  0  0  0  0  0  0  0  0  0  0
   -2.4592   -2.7875    0.2094 H   0  0  0  0  0  0  0  0  0  0  0  0
   -3.0267   -1.1157    0.4990 H   0  0  0  0  0  0  0  0  0  0  0  0
   -2.6855   -1.6929   -1.1841 H   0  0  0  0  0  0  0  0  0  0  0  0
    1.0618   -2.0328   -0.7458 H   0  0  0  0  0  0  0  0  0  0  0  0
   -0.2516   -1.9656   -1.9749 H   0  0  0  0  0  0  0  0  0  0  0  0
   -0.2410   -3.2452   -0.7077 H   0  0  0  0  0  0  0  0  0  0  0  0
   -1.0403   -0.7869    2.1436 H   0  0  0  0  0  0  0  0  0  0  0  0
    0.6166   -1.2778    1.6444 H   0  0  0  0  0  0  0  0  0  0  0  0
   -0.6585   -2.5143    1.8056 H   0  0  0  0  0  0  0  0  0  0  0  0
   -1.4993    1.9507   -1.3842 H   0  0  0  0  0  0  0  0  0  0  0  0
   -2.6031    0.5579   -1.3825 H   0  0  0  0  0  0  0  0  0  0  0  0
   -3.4829    3.4227   -0.8302 H   0  0  0  0  0  0  0  0  0  0  0  0
   -4.5766    3.2073    0.5897 H   0  0  0  0  0  0  0  0  0  0  0  0
   -4.5686    1.9706   -0.7251 H   0  0  0  0  0  0  0  0  0  0  0  0
  1  2  1  0
  2  3  1  0
  3 14  2  0
  3  4  1  0
  4  5  1  0
  5  6  2  0
  6  7  1  0
  6 11  1  0
  7  8  1  0
  7  9  1  0
  7 10  1  0
 11 12  1  0
 12 13  1  0
  1 15  1  0
  1 16  1  0
  1 17  1  0
  2 18  1  0
  8 19  1  0
  8 20  1  0
  8 21  1  0
  9 22  1  0
  9 23  1  0
  9 24  1  0
 10 25  1  0
 10 26  1  0
 10 27  1  0
 11 28  1  0
 11 29  1  0
 13 30  1  0
 13 31  1  0
 13 32  1  0
M  END
$$$$
