OC(CC)C(C)(C)C
     RDKit          3D

 24 23  0  0  1  0  0  0  0  0999 V2000
    0.3753    1.4797   -1.1108 O   0  0  0  0  0  0  0  0  0  0  0  0
    0.4539    0.1931   -0.5424 C   0  0  1  0  0  0  0  0  0  0  0  0
    1.5985    0.1870    0.4963 C   0  0  0  0  0  0  0  0  0  0  0  0
    2.9495    0.4873   -0.1530 C   0  0  0  0  0  0  0  0  0  0  0  0
   -0.9442   -0.2212    0.0373 C   0  0  0  0  0  0  0  0  0  0  0  0
   -1.9885   -0.1941   -1.1026 C   0  0  0  0  0  0  0  0  0  0  0  0
   -0.9044   -1.6578    0.6074 C   0  0  0  0  0  0  0  0  0  0  0  0
   -1.4074    0.7486    1.1473 C   0  0  0  0  0  0  0  0  0  0  0  0
    0.2466    1.3670   -2.0888 H   0  0  0  0  0  0  0  0  0  0  0  0
    0.7301   -0.5534   -1.3278 H   0  0  0  0  0  0  0  0  0  0  0  0
    1.4129    0.9504    1.2809 H   0  0  0  0  0  0  0  0  0  0  0  0
    1.6794   -0.8064    0.9824 H   0  0  0  0  0  0  0  0  0  0  0  0
    2.9503    1.5028   -0.6027 H   0  0  0  0  0  0  0  0  0  0  0  0
    3.1759   -0.2631   -0.9401 H   0  0  0  0  0  0  0  0  0  0  0  0
    3.7490    0.4443    0.6166 H   0  0  0  0  0  0  0  0  0  0  0  0
   -2.1131    0.8333   -1.5066 H   0  0  0  0  0  0  0  0  0  0  0  0
   -1.6782   -0.8634   -1.9340 H   0  0  0  0  0  0  0  0  0  0  0  0
   -2.9827   -0.5332   -0.7386 H   0  0  0  0  0  0  0  0  0  0  0  0
   -0.4825   -2.3650   -0.1388 H   0  0  0  0  0  0  0  0  0  0  0  0
   -0.2968   -1.7121    1.5342 H   0  0  0  0  0  0  0  0  0  0  0  0
   -1.9271   -2.0035    0.8727 H   0  0  0  0  0  0  0  0  0  0  0  0
   -0.7491    0.6849    2.0385 H   0  0  0  0  0  0  0  0  0  0  0  0
   -2.4384    0.4973    1.4783 H   0  0  0  0  0  0  0  0  0  0  0  0
   -1.4091    1.7977    0.7820 H   0  0  0  0  0  0  0  0  0  0  0  0
  1  2  1  0
  2  3  1  0
  2  5  1  0
  3  4  1  0
  5  6  1  0
  5  7  1  0
  5  8  1  0
  1  9  1  0
  2 10  1  6
  3 11  1  0
  3 12  1  0
  4 13  1  0
  4 14  1  0
  4 15  1  0
  6 16  1  0
  6 17  1  0
  6 18  1  0
  7 19  1  0
  7 20  1  0
  7 21  1  0
  8 22  1  0
  8 23  1  0
  8 24  1  0
M  END
$$$$
