Clc1c(c2cc(Cl)c(Cl)c(Cl)c2Cl)c(Cl)c(Cl)c(Cl)c1Cl
     RDKit          3D

 22 23  0  0  0  0  0  0  0  0999 V2000
    0.4514   -0.4166   -2.7435 Cl  0  0  0  0  0  0  0  0  0  0  0  0
    1.3999   -0.1733   -1.2719 C   0  0  0  0  0  0  0  0  0  0  0  0
    0.7507    0.0013   -0.0345 C   0  0  0  0  0  0  0  0  0  0  0  0
   -0.7261   -0.0186    0.0360 C   0  0  0  0  0  0  0  0  0  0  0  0
   -1.3795   -1.2373    0.2521 C   0  0  0  0  0  0  0  0  0  0  0  0
   -2.7728   -1.2926    0.3242 C   0  0  0  0  0  0  0  0  0  0  0  0
   -3.5416   -2.8512    0.5975 Cl  0  0  0  0  0  0  0  0  0  0  0  0
   -3.5315   -0.1190    0.1794 C   0  0  0  0  0  0  0  0  0  0  0  0
   -5.2919   -0.1924    0.2711 Cl  0  0  0  0  0  0  0  0  0  0  0  0
   -2.8828    1.1115   -0.0382 C   0  0  0  0  0  0  0  0  0  0  0  0
   -3.8306    2.5890   -0.2208 Cl  0  0  0  0  0  0  0  0  0  0  0  0
   -1.4777    1.1630   -0.1103 C   0  0  0  0  0  0  0  0  0  0  0  0
   -0.6581    2.7036   -0.3832 Cl  0  0  0  0  0  0  0  0  0  0  0  0
    1.5098    0.1946    1.1358 C   0  0  0  0  0  0  0  0  0  0  0  0
    0.6995    0.4139    2.6913 Cl  0  0  0  0  0  0  0  0  0  0  0  0
    2.9135    0.2160    1.0670 C   0  0  0  0  0  0  0  0  0  0  0  0
    3.8649    0.4606    2.5339 Cl  0  0  0  0  0  0  0  0  0  0  0  0
    3.5601    0.0433   -0.1692 C   0  0  0  0  0  0  0  0  0  0  0  0
    5.3234    0.0710   -0.2539 Cl  0  0  0  0  0  0  0  0  0  0  0  0
    2.8037   -0.1515   -1.3379 C   0  0  0  0  0  0  0  0  0  0  0  0
    3.6173   -0.3681   -2.8897 Cl  0  0  0  0  0  0  0  0  0  0  0  0
   -0.8014   -2.1470    0.3647 H   0  0  0  0  0  0  0  0  0  0  0  0
  1  2  1  0
  2  3  2  0
  2 20  1  0
  3  4  1  0
  3 14  1  0
  4  5  2  0
  4 12  1  0
  5  6  1  0
  6  8  2  0
  6  7  1  0
  8 10  1  0
  8  9  1  0
 10 11  1  0
 10 12  2  0
 12 13  1  0
 14 16  2  0
 14 15  1  0
 16 18  1  0
 16 17  1  0
 18 19  1  0
 18 20  2  0
 20 21  1  0
  5 22  1  0
M  END
$$$$
