O=C(OC(C)C)C=C(C)C=CCC(C)CCCC(OC)(C)C
     RDKit          3D

 56 55  0  0  1  0  0  0  0  0999 V2000
   -5.5878    1.5150   -0.8455 O   0  0  0  0  0  0  0  0  0  0  0  0
   -4.8593    0.6360   -0.3124 C   0  0  0  0  0  0  0  0  0  0  0  0
   -4.9942   -0.7134   -0.6742 O   0  0  0  0  0  0  0  0  0  0  0  0
   -5.8708   -1.2283   -1.6832 C   0  0  0  0  0  0  0  0  0  0  0  0
   -5.4888   -0.7078   -3.0718 C   0  0  0  0  0  0  0  0  0  0  0  0
   -7.3406   -0.9531   -1.3491 C   0  0  0  0  0  0  0  0  0  0  0  0
   -3.8827    1.0643    0.7119 C   0  0  0  0  0  0  0  0  0  0  0  0
   -2.9307    0.2926    1.2712 C   0  0  0  0  0  0  0  0  0  0  0  0
   -2.7548   -1.1671    0.9495 C   0  0  0  0  0  0  0  0  0  0  0  0
   -2.0484    0.9025    2.2861 C   0  0  0  0  0  0  0  0  0  0  0  0
   -0.7382    1.1049    2.0991 C   0  0  0  0  0  0  0  0  0  0  0  0
   -0.0328    0.7814    0.8024 C   0  0  0  0  0  0  0  0  0  0  0  0
    1.4368    1.2593    0.7457 C   0  0  1  0  0  0  0  0  0  0  0  0
    1.5439    2.7854    0.9116 C   0  0  0  0  0  0  0  0  0  0  0  0
    2.3213    0.4898    1.7600 C   0  0  0  0  0  0  0  0  0  0  0  0
    3.8339    0.7751    1.6620 C   0  0  0  0  0  0  0  0  0  0  0  0
    4.4995    0.5557    0.2797 C   0  0  0  0  0  0  0  0  0  0  0  0
    4.6074   -0.9053   -0.2868 C   0  0  0  0  0  0  0  0  0  0  0  0
    5.7346   -1.0055   -1.1606 O   0  0  0  0  0  0  0  0  0  0  0  0
    5.5954   -0.2964   -2.3792 C   0  0  0  0  0  0  0  0  0  0  0  0
    3.3050   -1.3517   -1.0018 C   0  0  0  0  0  0  0  0  0  0  0  0
    4.8932   -1.9099    0.8458 C   0  0  0  0  0  0  0  0  0  0  0  0
   -5.7385   -2.3323   -1.6953 H   0  0  0  0  0  0  0  0  0  0  0  0
   -5.6514    0.3871   -3.1528 H   0  0  0  0  0  0  0  0  0  0  0  0
   -6.0998   -1.2148   -3.8483 H   0  0  0  0  0  0  0  0  0  0  0  0
   -4.4181   -0.9286   -3.2723 H   0  0  0  0  0  0  0  0  0  0  0  0
   -7.9987   -1.5409   -2.0246 H   0  0  0  0  0  0  0  0  0  0  0  0
   -7.5513   -1.2571   -0.3015 H   0  0  0  0  0  0  0  0  0  0  0  0
   -7.5899    0.1213   -1.4679 H   0  0  0  0  0  0  0  0  0  0  0  0
   -3.9299    2.1082    1.0046 H   0  0  0  0  0  0  0  0  0  0  0  0
   -1.9117   -1.6022    1.5279 H   0  0  0  0  0  0  0  0  0  0  0  0
   -3.6704   -1.7299    1.2297 H   0  0  0  0  0  0  0  0  0  0  0  0
   -2.5364   -1.2984   -0.1319 H   0  0  0  0  0  0  0  0  0  0  0  0
   -2.5004    1.2531    3.2060 H   0  0  0  0  0  0  0  0  0  0  0  0
   -0.1890    1.5780    2.9027 H   0  0  0  0  0  0  0  0  0  0  0  0
   -0.5900    1.2543   -0.0364 H   0  0  0  0  0  0  0  0  0  0  0  0
   -0.0568   -0.3163    0.6355 H   0  0  0  0  0  0  0  0  0  0  0  0
    1.7832    1.0177   -0.2795 H   0  0  0  0  0  0  0  0  0  0  0  0
    2.5503    3.1368    0.6015 H   0  0  0  0  0  0  0  0  0  0  0  0
    1.3726    3.0890    1.9658 H   0  0  0  0  0  0  0  0  0  0  0  0
    0.7995    3.2970    0.2649 H   0  0  0  0  0  0  0  0  0  0  0  0
    2.0044    0.7538    2.7918 H   0  0  0  0  0  0  0  0  0  0  0  0
    2.1453   -0.5992    1.6687 H   0  0  0  0  0  0  0  0  0  0  0  0
    4.0039    1.8334    1.9555 H   0  0  0  0  0  0  0  0  0  0  0  0
    4.3617    0.1781    2.4349 H   0  0  0  0  0  0  0  0  0  0  0  0
    4.0150    1.2254   -0.4586 H   0  0  0  0  0  0  0  0  0  0  0  0
    5.5380    0.9425    0.3830 H   0  0  0  0  0  0  0  0  0  0  0  0
    5.2767    0.7552   -2.2378 H   0  0  0  0  0  0  0  0  0  0  0  0
    4.9071   -0.8262   -3.0708 H   0  0  0  0  0  0  0  0  0  0  0  0
    6.5858   -0.2647   -2.8773 H   0  0  0  0  0  0  0  0  0  0  0  0
    3.4854   -2.2936   -1.5633 H   0  0  0  0  0  0  0  0  0  0  0  0
    2.4831   -1.5479   -0.2884 H   0  0  0  0  0  0  0  0  0  0  0  0
    2.9538   -0.5799   -1.7184 H   0  0  0  0  0  0  0  0  0  0  0  0
    4.0355   -2.0102    1.5424 H   0  0  0  0  0  0  0  0  0  0  0  0
    5.7901   -1.5958    1.4221 H   0  0  0  0  0  0  0  0  0  0  0  0
    5.0992   -2.9162    0.4196 H   0  0  0  0  0  0  0  0  0  0  0  0
  1  2  2  0
  2  7  1  0
  2  3  1  0
  3  4  1  0
  4  6  1  0
  4  5  1  0
  7  8  2  0
  8  9  1  0
  8 10  1  0
 10 11  2  0
 11 12  1  0
 12 13  1  0
 13 14  1  0
 13 15  1  0
 15 16  1  0
 16 17  1  0
 17 18  1  0
 18 22  1  0
 18 21  1  0
 18 19  1  0
 19 20  1  0
  4 23  1  0
  5 24  1  0
  5 25  1  0
  5 26  1  0
  6 27  1  0
  6 28  1  0
  6 29  1  0
  7 30  1  0
  9 31  1  0
  9 32  1  0
  9 33  1  0
 10 34  1  0
 11 35  1  0
 12 36  1  0
 12 37  1  0
 13 38  1  6
 14 39  1  0
 14 40  1  0
 14 41  1  0
 15 42  1  0
 15 43  1  0
 16 44  1  0
 16 45  1  0
 17 46  1  0
 17 47  1  0
 20 48  1  0
 20 49  1  0
 20 50  1  0
 21 51  1  0
 21 52  1  0
 21 53  1  0
 22 54  1  0
 22 55  1  0
 22 56  1  0
M  END
$$$$
