Clc1ccc(Cl)c(c2cccc(Cl)c2Cl)c1
     RDKit          3D

 22 23  0  0  0  0  0  0  0  0999 V2000
   -3.8326    2.2077    1.2326 Cl  0  0  0  0  0  0  0  0  0  0  0  0
   -2.8867    0.8567    0.6351 C   0  0  0  0  0  0  0  0  0  0  0  0
   -3.5218   -0.3317    0.2648 C   0  0  0  0  0  0  0  0  0  0  0  0
   -2.7698   -1.4085   -0.2114 C   0  0  0  0  0  0  0  0  0  0  0  0
   -1.3777   -1.3059   -0.3197 C   0  0  0  0  0  0  0  0  0  0  0  0
   -0.4782   -2.6790   -0.9562 Cl  0  0  0  0  0  0  0  0  0  0  0  0
   -0.7317   -0.1084    0.0522 C   0  0  0  0  0  0  0  0  0  0  0  0
    0.7377    0.0305   -0.0354 C   0  0  0  0  0  0  0  0  0  0  0  0
    1.5466   -0.7108    0.8402 C   0  0  0  0  0  0  0  0  0  0  0  0
    2.9359   -0.5893    0.7917 C   0  0  0  0  0  0  0  0  0  0  0  0
    3.5311    0.2736   -0.1290 C   0  0  0  0  0  0  0  0  0  0  0  0
    2.7409    1.0198   -1.0098 C   0  0  0  0  0  0  0  0  0  0  0  0
    3.5367    2.0895   -2.1573 Cl  0  0  0  0  0  0  0  0  0  0  0  0
    1.3385    0.9036   -0.9687 C   0  0  0  0  0  0  0  0  0  0  0  0
    0.3468    1.8211   -2.1056 Cl  0  0  0  0  0  0  0  0  0  0  0  0
   -1.4967    0.9681    0.5307 C   0  0  0  0  0  0  0  0  0  0  0  0
   -4.5977   -0.4218    0.3438 H   0  0  0  0  0  0  0  0  0  0  0  0
   -3.2716   -2.3232   -0.5004 H   0  0  0  0  0  0  0  0  0  0  0  0
    1.0985   -1.3800    1.5649 H   0  0  0  0  0  0  0  0  0  0  0  0
    3.5526   -1.1638    1.4707 H   0  0  0  0  0  0  0  0  0  0  0  0
    4.6099    0.3610   -0.1586 H   0  0  0  0  0  0  0  0  0  0  0  0
   -1.0109    1.8907    0.8255 H   0  0  0  0  0  0  0  0  0  0  0  0
  1  2  1  0
  2  3  2  0
  2 16  1  0
  3  4  1  0
  4  5  2  0
  5  7  1  0
  5  6  1  0
  7  8  1  0
  7 16  2  0
  8  9  2  0
  8 14  1  0
  9 10  1  0
 10 11  2  0
 11 12  1  0
 12 13  1  0
 12 14  2  0
 14 15  1  0
  3 17  1  0
  4 18  1  0
  9 19  1  0
 10 20  1  0
 11 21  1  0
 16 22  1  0
M  END
$$$$
