Clc(cc2)c(cc2Cl)c1c(Cl)cccc1Cl
     RDKit          3D

 22 23  0  0  0  0  0  0  0  0999 V2000
    0.7478    2.7461   -0.1563 Cl  0  0  0  0  0  0  0  0  0  0  0  0
    1.4900    1.1502   -0.1351 C   0  0  0  0  0  0  0  0  0  0  0  0
    2.8846    1.0527   -0.2077 C   0  0  0  0  0  0  0  0  0  0  0  0
    3.5058   -0.1987   -0.1832 C   0  0  0  0  0  0  0  0  0  0  0  0
    0.7108   -0.0198   -0.0383 C   0  0  0  0  0  0  0  0  0  0  0  0
    1.3423   -1.2728   -0.0121 C   0  0  0  0  0  0  0  0  0  0  0  0
    2.7361   -1.3615   -0.0848 C   0  0  0  0  0  0  0  0  0  0  0  0
    3.5180   -2.9313   -0.0524 Cl  0  0  0  0  0  0  0  0  0  0  0  0
   -0.7627    0.0486    0.0382 C   0  0  0  0  0  0  0  0  0  0  0  0
   -1.4133   -0.0190    1.2876 C   0  0  0  0  0  0  0  0  0  0  0  0
   -0.5050   -0.1736    2.7881 Cl  0  0  0  0  0  0  0  0  0  0  0  0
   -2.8095    0.0472    1.3524 C   0  0  0  0  0  0  0  0  0  0  0  0
   -3.5631    0.1784    0.1847 C   0  0  0  0  0  0  0  0  0  0  0  0
   -2.9264    0.2435   -1.0559 C   0  0  0  0  0  0  0  0  0  0  0  0
   -1.5311    0.1787   -1.1374 C   0  0  0  0  0  0  0  0  0  0  0  0
   -0.7739    0.2536   -2.7253 Cl  0  0  0  0  0  0  0  0  0  0  0  0
    3.4891    1.9477   -0.2815 H   0  0  0  0  0  0  0  0  0  0  0  0
    4.5850   -0.2632   -0.2395 H   0  0  0  0  0  0  0  0  0  0  0  0
    0.7505   -2.1773    0.0635 H   0  0  0  0  0  0  0  0  0  0  0  0
   -3.3126   -0.0018    2.3097 H   0  0  0  0  0  0  0  0  0  0  0  0
   -4.6428    0.2291    0.2412 H   0  0  0  0  0  0  0  0  0  0  0  0
   -3.5199    0.3431   -1.9559 H   0  0  0  0  0  0  0  0  0  0  0  0
  1  2  1  0
  2  3  2  0
  2  5  1  0
  3  4  1  0
  4  7  2  0
  5  9  1  0
  5  6  2  0
  6  7  1  0
  7  8  1  0
  9 15  1  0
  9 10  2  0
 10 11  1  0
 10 12  1  0
 12 13  2  0
 13 14  1  0
 14 15  2  0
 15 16  1  0
  3 17  1  0
  4 18  1  0
  6 19  1  0
 12 20  1  0
 13 21  1  0
 14 22  1  0
M  END
$$$$
