CC=CC=O
     RDKit          3D

 11 10  0  0  0  0  0  0  0  0999 V2000
   -1.1738   -0.6239   -0.5907 C   0  0  0  0  0  0  0  0  0  0  0  0
   -0.5689    0.7044   -0.2530 C   0  0  0  0  0  0  0  0  0  0  0  0
    0.6261    0.8724    0.3329 C   0  0  0  0  0  0  0  0  0  0  0  0
    1.5475   -0.2053    0.7448 C   0  0  0  0  0  0  0  0  0  0  0  0
    1.2805   -1.4238    0.5749 O   0  0  0  0  0  0  0  0  0  0  0  0
   -2.1648   -0.4700   -1.0669 H   0  0  0  0  0  0  0  0  0  0  0  0
   -1.3197   -1.2246    0.3316 H   0  0  0  0  0  0  0  0  0  0  0  0
   -0.5242   -1.1705   -1.3062 H   0  0  0  0  0  0  0  0  0  0  0  0
   -1.1414    1.5900   -0.5019 H   0  0  0  0  0  0  0  0  0  0  0  0
    0.9522    1.8871    0.5247 H   0  0  0  0  0  0  0  0  0  0  0  0
    2.4864    0.0642    1.2097 H   0  0  0  0  0  0  0  0  0  0  0  0
  1  2  1  0
  2  3  2  0
  3  4  1  0
  4  5  2  0
  1  6  1  0
  1  7  1  0
  1  8  1  0
  2  9  1  0
  3 10  1  0
  4 11  1  0
M  END
$$$$
