NC(OCCCCCCC)=O
     RDKit          3D

 28 27  0  0  0  0  0  0  0  0999 V2000
    5.6979   -0.0574    0.7013 N   0  0  0  0  0  0  0  0  0  0  0  0
    4.3994   -0.4858    0.3005 C   0  0  0  0  0  0  0  0  0  0  0  0
    3.5277    0.4281   -0.3018 O   0  0  0  0  0  0  0  0  0  0  0  0
    2.1959    0.1018   -0.6955 C   0  0  0  0  0  0  0  0  0  0  0  0
    1.2693    0.0649    0.5270 C   0  0  0  0  0  0  0  0  0  0  0  0
   -0.1541   -0.4009    0.1811 C   0  0  0  0  0  0  0  0  0  0  0  0
   -0.9556    0.6667   -0.5838 C   0  0  0  0  0  0  0  0  0  0  0  0
   -2.3807    0.2021   -0.9252 C   0  0  0  0  0  0  0  0  0  0  0  0
   -3.3064    0.1791    0.3003 C   0  0  0  0  0  0  0  0  0  0  0  0
   -4.7399   -0.1569   -0.1010 C   0  0  0  0  0  0  0  0  0  0  0  0
    4.0522   -1.6837    0.4860 O   0  0  0  0  0  0  0  0  0  0  0  0
    5.9940    0.9319    0.5492 H   0  0  0  0  0  0  0  0  0  0  0  0
    6.3619   -0.7269    1.1498 H   0  0  0  0  0  0  0  0  0  0  0  0
    2.1850   -0.8736   -1.2298 H   0  0  0  0  0  0  0  0  0  0  0  0
    1.8495    0.8842   -1.4011 H   0  0  0  0  0  0  0  0  0  0  0  0
    1.6895   -0.6426    1.2735 H   0  0  0  0  0  0  0  0  0  0  0  0
    1.2371    1.0696    1.0022 H   0  0  0  0  0  0  0  0  0  0  0  0
   -0.1088   -1.3410   -0.4112 H   0  0  0  0  0  0  0  0  0  0  0  0
   -0.6705   -0.6298    1.1367 H   0  0  0  0  0  0  0  0  0  0  0  0
   -0.4409    0.8921   -1.5413 H   0  0  0  0  0  0  0  0  0  0  0  0
   -0.9973    1.6083    0.0064 H   0  0  0  0  0  0  0  0  0  0  0  0
   -2.8002    0.9083   -1.6753 H   0  0  0  0  0  0  0  0  0  0  0  0
   -2.3472   -0.8056   -1.3947 H   0  0  0  0  0  0  0  0  0  0  0  0
   -2.9601   -0.5841    1.0283 H   0  0  0  0  0  0  0  0  0  0  0  0
   -3.2980    1.1730    0.7983 H   0  0  0  0  0  0  0  0  0  0  0  0
   -5.1350    0.6093   -0.8017 H   0  0  0  0  0  0  0  0  0  0  0  0
   -5.3845   -0.1761    0.8030 H   0  0  0  0  0  0  0  0  0  0  0  0
   -4.7803   -1.1549   -0.5875 H   0  0  0  0  0  0  0  0  0  0  0  0
  1  2  1  0
  2 11  2  0
  2  3  1  0
  3  4  1  0
  4  5  1  0
  5  6  1  0
  6  7  1  0
  7  8  1  0
  8  9  1  0
  9 10  1  0
  1 12  1  0
  1 13  1  0
  4 14  1  0
  4 15  1  0
  5 16  1  0
  5 17  1  0
  6 18  1  0
  6 19  1  0
  7 20  1  0
  7 21  1  0
  8 22  1  0
  8 23  1  0
  9 24  1  0
  9 25  1  0
 10 26  1  0
 10 27  1  0
 10 28  1  0
M  END
$$$$
