C34C2CC(C)C1=CC(C=CC1(C)C2(F)C(O)CC3(C)C(C(C)=O)(O)CC4)=O
     RDKit          3D

 56 59  0  0  1  0  0  0  0  0999 V2000
    1.2524   -0.5787    0.8488 C   0  0  1  0  0  0  0  0  0  0  0  0
   -0.2015   -1.1295    0.7191 C   0  0  1  0  0  0  0  0  0  0  0  0
   -1.2025   -0.5574    1.7514 C   0  0  0  0  0  0  0  0  0  0  0  0
   -2.6422   -0.7513    1.2924 C   0  0  1  0  0  0  0  0  0  0  0  0
   -3.6248   -0.4563    2.4394 C   0  0  0  0  0  0  0  0  0  0  0  0
   -2.7916    0.1016    0.0515 C   0  0  0  0  0  0  0  0  0  0  0  0
   -3.5191    1.2401    0.0581 C   0  0  0  0  0  0  0  0  0  0  0  0
   -3.4087    2.2025   -1.0382 C   0  0  0  0  0  0  0  0  0  0  0  0
   -2.3876    2.0031   -2.0608 C   0  0  0  0  0  0  0  0  0  0  0  0
   -1.6780    0.8733   -2.0933 C   0  0  0  0  0  0  0  0  0  0  0  0
   -1.9996   -0.3322   -1.1983 C   0  0  2  0  0  0  0  0  0  0  0  0
   -2.9922   -1.1785   -2.0411 C   0  0  0  0  0  0  0  0  0  0  0  0
   -0.7035   -1.2262   -0.7975 C   0  0  2  0  0  0  0  0  0  0  0  0
   -1.0964   -2.5578   -0.9260 F   0  0  0  0  0  0  0  0  0  0  0  0
    0.5340   -1.1151   -1.7690 C   0  0  1  0  0  0  0  0  0  0  0  0
    0.1628   -1.2460   -3.1176 O   0  0  0  0  0  0  0  0  0  0  0  0
    1.4301    0.1463   -1.5758 C   0  0  0  0  0  0  0  0  0  0  0  0
    1.5968    0.5902   -0.0805 C   0  0  1  0  0  0  0  0  0  0  0  0
    0.6592    1.8093    0.1887 C   0  0  0  0  0  0  0  0  0  0  0  0
    3.0534    0.9623    0.3926 C   0  0  1  0  0  0  0  0  0  0  0  0
    4.1602    0.1305   -0.2858 C   0  0  0  0  0  0  0  0  0  0  0  0
    4.5233   -1.2804    0.0983 C   0  0  0  0  0  0  0  0  0  0  0  0
    4.7916    0.6370   -1.2036 O   0  0  0  0  0  0  0  0  0  0  0  0
    3.3087    2.3279    0.1396 O   0  0  0  0  0  0  0  0  0  0  0  0
    3.0122    0.7160    1.9311 C   0  0  0  0  0  0  0  0  0  0  0  0
    1.8135   -0.2068    2.2232 C   0  0  0  0  0  0  0  0  0  0  0  0
   -4.1437    3.2246   -1.0641 O   0  0  0  0  0  0  0  0  0  0  0  0
    1.8847   -1.4323    0.5260 H   0  0  0  0  0  0  0  0  0  0  0  0
   -0.0935   -2.1871    1.0612 H   0  0  0  0  0  0  0  0  0  0  0  0
   -1.0509   -1.0733    2.7267 H   0  0  0  0  0  0  0  0  0  0  0  0
   -1.0279    0.5220    1.9404 H   0  0  0  0  0  0  0  0  0  0  0  0
   -2.8021   -1.8160    1.0122 H   0  0  0  0  0  0  0  0  0  0  0  0
   -3.4949   -1.2078    3.2473 H   0  0  0  0  0  0  0  0  0  0  0  0
   -4.6720   -0.5282    2.0766 H   0  0  0  0  0  0  0  0  0  0  0  0
   -3.4474    0.5496    2.8779 H   0  0  0  0  0  0  0  0  0  0  0  0
   -4.1169    1.5350    0.9074 H   0  0  0  0  0  0  0  0  0  0  0  0
   -2.2143    2.7721   -2.8031 H   0  0  0  0  0  0  0  0  0  0  0  0
   -1.0331    0.7653   -2.9487 H   0  0  0  0  0  0  0  0  0  0  0  0
   -3.3900   -2.0384   -1.4599 H   0  0  0  0  0  0  0  0  0  0  0  0
   -3.8684   -0.5710   -2.3592 H   0  0  0  0  0  0  0  0  0  0  0  0
   -2.5024   -1.5714   -2.9570 H   0  0  0  0  0  0  0  0  0  0  0  0
    1.1986   -1.9819   -1.5359 H   0  0  0  0  0  0  0  0  0  0  0  0
   -0.0853   -2.1961   -3.2660 H   0  0  0  0  0  0  0  0  0  0  0  0
    2.4046   -0.0889   -2.0438 H   0  0  0  0  0  0  0  0  0  0  0  0
    1.0525    0.9901   -2.1884 H   0  0  0  0  0  0  0  0  0  0  0  0
    0.7543    2.1868    1.2270 H   0  0  0  0  0  0  0  0  0  0  0  0
   -0.3989    1.5618    0.0269 H   0  0  0  0  0  0  0  0  0  0  0  0
    0.9010    2.6487   -0.4974 H   0  0  0  0  0  0  0  0  0  0  0  0
    5.6194   -1.3472    0.2585 H   0  0  0  0  0  0  0  0  0  0  0  0
    4.2430   -1.9689   -0.7260 H   0  0  0  0  0  0  0  0  0  0  0  0
    4.0361   -1.6202    1.0302 H   0  0  0  0  0  0  0  0  0  0  0  0
    4.1732    2.5607    0.5718 H   0  0  0  0  0  0  0  0  0  0  0  0
    3.9593    0.2867    2.3221 H   0  0  0  0  0  0  0  0  0  0  0  0
    2.8574    1.6776    2.4709 H   0  0  0  0  0  0  0  0  0  0  0  0
    1.0726    0.3393    2.8419 H   0  0  0  0  0  0  0  0  0  0  0  0
    2.1346   -1.1154    2.7780 H   0  0  0  0  0  0  0  0  0  0  0  0
  1 26  1  0
  1  2  1  0
  1 18  1  0
  2  3  1  0
  2 13  1  0
  3  4  1  0
  4  5  1  0
  4  6  1  0
  6  7  2  0
  6 11  1  0
  7  8  1  0
  8  9  1  0
  8 27  2  0
  9 10  2  0
 10 11  1  0
 11 12  1  6
 11 13  1  0
 13 15  1  0
 13 14  1  1
 15 17  1  0
 15 16  1  0
 17 18  1  0
 18 19  1  1
 18 20  1  0
 20 25  1  0
 20 21  1  6
 20 24  1  0
 21 22  1  0
 21 23  2  0
 25 26  1  0
  1 28  1  6
  2 29  1  1
  3 30  1  0
  3 31  1  0
  4 32  1  6
  5 33  1  0
  5 34  1  0
  5 35  1  0
  7 36  1  0
  9 37  1  0
 10 38  1  0
 12 39  1  0
 12 40  1  0
 12 41  1  0
 15 42  1  1
 16 43  1  0
 17 44  1  0
 17 45  1  0
 19 46  1  0
 19 47  1  0
 19 48  1  0
 22 49  1  0
 22 50  1  0
 22 51  1  0
 24 52  1  0
 25 53  1  0
 25 54  1  0
 26 55  1  0
 26 56  1  0
M  END
$$$$
