CCCCCCCI
     RDKit          3D

 23 22  0  0  0  0  0  0  0  0999 V2000
   -3.4254    0.8647   -0.2571 C   0  0  0  0  0  0  0  0  0  0  0  0
   -2.4756   -0.3251   -0.1536 C   0  0  0  0  0  0  0  0  0  0  0  0
   -1.0126    0.1236   -0.2468 C   0  0  0  0  0  0  0  0  0  0  0  0
   -0.0616   -1.0771   -0.1315 C   0  0  0  0  0  0  0  0  0  0  0  0
    1.4092   -0.6898   -0.3517 C   0  0  0  0  0  0  0  0  0  0  0  0
    1.9855    0.1295    0.8150 C   0  0  0  0  0  0  0  0  0  0  0  0
    3.4884    0.3708    0.6576 C   0  0  0  0  0  0  0  0  0  0  0  0
    3.9136    1.7612   -0.9160 I   0  0  0  0  0  0  0  0  0  0  0  0
   -3.2894    1.3835   -1.2300 H   0  0  0  0  0  0  0  0  0  0  0  0
   -3.2379    1.5815    0.5706 H   0  0  0  0  0  0  0  0  0  0  0  0
   -4.4752    0.5095   -0.1879 H   0  0  0  0  0  0  0  0  0  0  0  0
   -2.6485   -0.8400    0.8167 H   0  0  0  0  0  0  0  0  0  0  0  0
   -2.7030   -1.0381   -0.9759 H   0  0  0  0  0  0  0  0  0  0  0  0
   -0.8061    0.8448    0.5725 H   0  0  0  0  0  0  0  0  0  0  0  0
   -0.8475    0.6348   -1.2208 H   0  0  0  0  0  0  0  0  0  0  0  0
   -0.1797   -1.5601    0.8634 H   0  0  0  0  0  0  0  0  0  0  0  0
   -0.3369   -1.8279   -0.9044 H   0  0  0  0  0  0  0  0  0  0  0  0
    1.5061   -0.1253   -1.3040 H   0  0  0  0  0  0  0  0  0  0  0  0
    1.9972   -1.6279   -0.4563 H   0  0  0  0  0  0  0  0  0  0  0  0
    1.8183   -0.4220    1.7658 H   0  0  0  0  0  0  0  0  0  0  0  0
    1.4731    1.1114    0.8903 H   0  0  0  0  0  0  0  0  0  0  0  0
    3.8875    0.8025    1.5997 H   0  0  0  0  0  0  0  0  0  0  0  0
    4.0203   -0.5848    0.4629 H   0  0  0  0  0  0  0  0  0  0  0  0
  1  2  1  0
  2  3  1  0
  3  4  1  0
  4  5  1  0
  5  6  1  0
  6  7  1  0
  7  8  1  0
  1  9  1  0
  1 10  1  0
  1 11  1  0
  2 12  1  0
  2 13  1  0
  3 14  1  0
  3 15  1  0
  4 16  1  0
  4 17  1  0
  5 18  1  0
  5 19  1  0
  6 20  1  0
  6 21  1  0
  7 22  1  0
  7 23  1  0
M  END
$$$$
