CC(CC1CCCCN1)=O
     RDKit          3D

 25 25  0  0  1  0  0  0  0  0999 V2000
    3.4179   -0.1548   -0.4899 C   0  0  0  0  0  0  0  0  0  0  0  0
    2.4951   -0.5672    0.6176 C   0  0  0  0  0  0  0  0  0  0  0  0
    1.3186    0.2900    1.0078 C   0  0  0  0  0  0  0  0  0  0  0  0
    0.1749    0.2196   -0.0322 C   0  0  2  0  0  0  0  0  0  0  0  0
   -0.8456    1.3644    0.2087 C   0  0  0  0  0  0  0  0  0  0  0  0
   -2.2340    0.9743   -0.3009 C   0  0  0  0  0  0  0  0  0  0  0  0
   -2.7504   -0.2846    0.4172 C   0  0  0  0  0  0  0  0  0  0  0  0
   -1.6096   -1.2189    0.8569 C   0  0  0  0  0  0  0  0  0  0  0  0
   -0.4738   -1.1152   -0.0674 N   0  0  0  0  0  0  0  0  0  0  0  0
    2.6946   -1.6225    1.1996 O   0  0  0  0  0  0  0  0  0  0  0  0
    3.1181    0.8275   -0.9123 H   0  0  0  0  0  0  0  0  0  0  0  0
    3.3913   -0.9151   -1.2983 H   0  0  0  0  0  0  0  0  0  0  0  0
    4.4539   -0.0726   -0.0997 H   0  0  0  0  0  0  0  0  0  0  0  0
    0.9417   -0.0183    2.0072 H   0  0  0  0  0  0  0  0  0  0  0  0
    1.6732    1.3398    1.1020 H   0  0  0  0  0  0  0  0  0  0  0  0
    0.6134    0.3935   -1.0396 H   0  0  0  0  0  0  0  0  0  0  0  0
   -0.9246    1.5986    1.2941 H   0  0  0  0  0  0  0  0  0  0  0  0
   -0.5044    2.2875   -0.3088 H   0  0  0  0  0  0  0  0  0  0  0  0
   -2.1762    0.7814   -1.3951 H   0  0  0  0  0  0  0  0  0  0  0  0
   -2.9435    1.8148   -0.1412 H   0  0  0  0  0  0  0  0  0  0  0  0
   -3.3360    0.0123    1.3146 H   0  0  0  0  0  0  0  0  0  0  0  0
   -3.4372   -0.8302   -0.2660 H   0  0  0  0  0  0  0  0  0  0  0  0
   -1.2869   -0.9661    1.8915 H   0  0  0  0  0  0  0  0  0  0  0  0
   -1.9826   -2.2661    0.8712 H   0  0  0  0  0  0  0  0  0  0  0  0
    0.2121   -1.8723    0.1559 H   0  0  0  0  0  0  0  0  0  0  0  0
  1  2  1  0
  2  3  1  0
  2 10  2  0
  3  4  1  0
  4  5  1  0
  4  9  1  0
  5  6  1  0
  6  7  1  0
  7  8  1  0
  8  9  1  0
  1 11  1  0
  1 12  1  0
  1 13  1  0
  3 14  1  0
  3 15  1  0
  4 16  1  6
  5 17  1  0
  5 18  1  0
  6 19  1  0
  6 20  1  0
  7 21  1  0
  7 22  1  0
  8 23  1  0
  8 24  1  0
  9 25  1  0
M  END
$$$$
