OC1COCC1
     RDKit          3D

 14 14  0  0  1  0  0  0  0  0999 V2000
   -0.5025   -0.4413    1.8539 O   0  0  0  0  0  0  0  0  0  0  0  0
   -0.6798    0.2995    0.6691 C   0  0  2  0  0  0  0  0  0  0  0  0
   -1.0988   -0.5908   -0.4887 C   0  0  0  0  0  0  0  0  0  0  0  0
    0.0457   -0.9720   -1.2165 O   0  0  0  0  0  0  0  0  0  0  0  0
    1.1076   -0.1270   -0.8295 C   0  0  0  0  0  0  0  0  0  0  0  0
    0.6167    0.8882    0.1871 C   0  0  0  0  0  0  0  0  0  0  0  0
    0.1561   -1.1632    1.6735 H   0  0  0  0  0  0  0  0  0  0  0  0
   -1.4347    1.0954    0.8514 H   0  0  0  0  0  0  0  0  0  0  0  0
   -1.7816   -0.0316   -1.1653 H   0  0  0  0  0  0  0  0  0  0  0  0
   -1.6331   -1.4951   -0.1260 H   0  0  0  0  0  0  0  0  0  0  0  0
    1.9126   -0.7487   -0.3814 H   0  0  0  0  0  0  0  0  0  0  0  0
    1.5192    0.3877   -1.7239 H   0  0  0  0  0  0  0  0  0  0  0  0
    0.4248    1.8621   -0.3160 H   0  0  0  0  0  0  0  0  0  0  0  0
    1.3476    1.0368    1.0123 H   0  0  0  0  0  0  0  0  0  0  0  0
  1  2  1  0
  2  6  1  0
  2  3  1  0
  3  4  1  0
  4  5  1  0
  5  6  1  0
  1  7  1  0
  2  8  1  1
  3  9  1  0
  3 10  1  0
  5 11  1  0
  5 12  1  0
  6 13  1  0
  6 14  1  0
M  END
$$$$
