OC(CO)Cn(cn1)c(C(N2C)=O)c1N(C2=O)C
     RDKit          3D

 32 33  0  0  1  0  0  0  0  0999 V2000
    4.2178   -0.7871    1.1068 O   0  0  0  0  0  0  0  0  0  0  0  0
    3.0929   -0.1235    0.5862 C   0  0  1  0  0  0  0  0  0  0  0  0
    2.8074   -0.5893   -0.8532 C   0  0  0  0  0  0  0  0  0  0  0  0
    3.9174   -0.3457   -1.6747 O   0  0  0  0  0  0  0  0  0  0  0  0
    1.8791   -0.3354    1.5104 C   0  0  0  0  0  0  0  0  0  0  0  0
    0.7556    0.5171    1.1093 N   0  0  0  0  0  0  0  0  0  0  0  0
    0.6597    1.8513    1.3350 C   0  0  0  0  0  0  0  0  0  0  0  0
   -0.5008    2.3912    0.8852 N   0  0  0  0  0  0  0  0  0  0  0  0
   -0.3992    0.2032    0.4873 C   0  0  0  0  0  0  0  0  0  0  0  0
   -0.8775   -1.0085   -0.0067 C   0  0  0  0  0  0  0  0  0  0  0  0
   -2.1133   -1.0236   -0.6134 N   0  0  0  0  0  0  0  0  0  0  0  0
   -2.6700   -2.2944   -1.1081 C   0  0  0  0  0  0  0  0  0  0  0  0
   -0.1955   -2.0635    0.0982 O   0  0  0  0  0  0  0  0  0  0  0  0
   -1.1407    1.3299    0.3564 C   0  0  0  0  0  0  0  0  0  0  0  0
   -2.3657    1.3338   -0.2353 N   0  0  0  0  0  0  0  0  0  0  0  0
   -2.8663    0.1354   -0.6941 C   0  0  0  0  0  0  0  0  0  0  0  0
   -4.0280    0.0959   -1.1902 O   0  0  0  0  0  0  0  0  0  0  0  0
   -3.1617    2.5666   -0.3063 C   0  0  0  0  0  0  0  0  0  0  0  0
    4.0108   -1.7584    1.1258 H   0  0  0  0  0  0  0  0  0  0  0  0
    3.3266    0.9632    0.5589 H   0  0  0  0  0  0  0  0  0  0  0  0
    2.5381   -1.6706   -0.8697 H   0  0  0  0  0  0  0  0  0  0  0  0
    1.9457   -0.0223   -1.2638 H   0  0  0  0  0  0  0  0  0  0  0  0
    4.5495   -1.0979   -1.5326 H   0  0  0  0  0  0  0  0  0  0  0  0
    1.5916   -1.4045    1.5248 H   0  0  0  0  0  0  0  0  0  0  0  0
    2.1672   -0.0780    2.5531 H   0  0  0  0  0  0  0  0  0  0  0  0
    1.4271    2.4313    1.8316 H   0  0  0  0  0  0  0  0  0  0  0  0
   -1.8672   -2.9844   -1.4451 H   0  0  0  0  0  0  0  0  0  0  0  0
   -3.2553   -2.7832   -0.3011 H   0  0  0  0  0  0  0  0  0  0  0  0
   -3.3279   -2.1290   -1.9878 H   0  0  0  0  0  0  0  0  0  0  0  0
   -2.5135    3.4685   -0.2832 H   0  0  0  0  0  0  0  0  0  0  0  0
   -3.8654    2.6047    0.5517 H   0  0  0  0  0  0  0  0  0  0  0  0
   -3.7384    2.6071   -1.2551 H   0  0  0  0  0  0  0  0  0  0  0  0
  1  2  1  0
  2  5  1  0
  2  3  1  0
  3  4  1  0
  5  6  1  0
  6  9  1  0
  6  7  1  0
  7  8  2  0
  8 14  1  0
  9 14  2  0
  9 10  1  0
 10 11  1  0
 10 13  2  0
 11 12  1  0
 11 16  1  0
 14 15  1  0
 15 18  1  0
 15 16  1  0
 16 17  2  0
  1 19  1  0
  2 20  1  6
  3 21  1  0
  3 22  1  0
  4 23  1  0
  5 24  1  0
  5 25  1  0
  7 26  1  0
 12 27  1  0
 12 28  1  0
 12 29  1  0
 18 30  1  0
 18 31  1  0
 18 32  1  0
M  END
$$$$
