
     RDKit          3D

 32 34  0  0  0  0  0  0  0  0999 V2000
    1.5165    2.3291   -0.2797 O   0  0  0  0  0  0  0  0  0  0  0  0
    2.3925    1.2436   -0.2489 C   0  0  0  0  0  0  0  0  0  0  0  0
    3.7739    1.4644   -0.1454 C   0  0  0  0  0  0  0  0  0  0  0  0
    4.6640    0.3835   -0.1200 C   0  0  0  0  0  0  0  0  0  0  0  0
    6.0371    0.5960   -0.0192 O   0  0  0  0  0  0  0  0  0  0  0  0
    4.1719   -0.9215   -0.1930 C   0  0  0  0  0  0  0  0  0  0  0  0
    2.7975   -1.1508   -0.2940 C   0  0  0  0  0  0  0  0  0  0  0  0
    1.8950   -0.0725   -0.3346 C   0  0  0  0  0  0  0  0  0  0  0  0
    0.4359   -0.3170   -0.4122 C   0  0  0  0  0  0  0  0  0  0  0  0
   -0.1151   -1.2298   -1.3311 C   0  0  0  0  0  0  0  0  0  0  0  0
    0.7107   -1.9055   -2.2333 O   0  0  0  0  0  0  0  0  0  0  0  0
   -1.5045   -1.4276   -1.3405 C   0  0  0  0  0  0  0  0  0  0  0  0
   -2.3177   -0.7013   -0.4463 C   0  0  0  0  0  0  0  0  0  0  0  0
   -3.7259   -0.8389   -0.3941 C   0  0  0  0  0  0  0  0  0  0  0  0
   -4.3928   -1.7260   -1.2401 O   0  0  0  0  0  0  0  0  0  0  0  0
   -4.4661   -0.0742    0.5198 C   0  0  0  0  0  0  0  0  0  0  0  0
   -3.8284    0.8231    1.3794 C   0  0  0  0  0  0  0  0  0  0  0  0
   -4.5870    1.5711    2.2770 O   0  0  0  0  0  0  0  0  0  0  0  0
   -2.4376    0.9631    1.3329 C   0  0  0  0  0  0  0  0  0  0  0  0
   -1.6818    0.2093    0.4303 C   0  0  0  0  0  0  0  0  0  0  0  0
   -0.3623    0.3584    0.4093 O   0  0  0  0  0  0  0  0  0  0  0  0
   -2.0087   -2.2491   -2.1539 O   0  0  0  0  0  0  0  0  0  0  0  0
    1.8510    3.2840   -0.2229 H   0  0  0  0  0  0  0  0  0  0  0  0
    4.1551    2.4761   -0.0858 H   0  0  0  0  0  0  0  0  0  0  0  0
    6.4259    1.5301    0.0367 H   0  0  0  0  0  0  0  0  0  0  0  0
    4.8554   -1.7606   -0.1632 H   0  0  0  0  0  0  0  0  0  0  0  0
    2.4385   -2.1720   -0.3185 H   0  0  0  0  0  0  0  0  0  0  0  0
    0.3476   -2.5631   -2.9128 H   0  0  0  0  0  0  0  0  0  0  0  0
   -5.4001   -1.8336   -1.2125 H   0  0  0  0  0  0  0  0  0  0  0  0
   -5.5433   -0.1768    0.5625 H   0  0  0  0  0  0  0  0  0  0  0  0
   -4.1558    2.2307    2.9142 H   0  0  0  0  0  0  0  0  0  0  0  0
   -1.9416    1.6579    1.9995 H   0  0  0  0  0  0  0  0  0  0  0  0
  1  2  1  0
  2  3  2  0
  2  8  1  0
  3  4  1  0
  4  6  2  0
  4  5  1  0
  6  7  1  0
  7  8  2  0
  8  9  1  0
  9 10  2  0
  9 21  1  0
 10 12  1  0
 10 11  1  0
 12 13  1  0
 12 22  2  0
 13 14  2  0
 13 20  1  0
 14 16  1  0
 14 15  1  0
 16 17  2  0
 17 19  1  0
 17 18  1  0
 19 20  2  0
 20 21  1  0
  1 23  1  0
  3 24  1  0
  5 25  1  0
  6 26  1  0
  7 27  1  0
 11 28  1  0
 15 29  1  0
 16 30  1  0
 18 31  1  0
 19 32  1  0
M  END
$$$$
