c1ccc2C(O)N3CCC(O)C3=Nc2c1
     RDKit          3D

 27 29  0  0  1  0  0  0  0  0999 V2000
    3.5701   -1.4127    0.5302 C   0  0  0  0  0  0  0  0  0  0  0  0
    3.8303   -0.0620    0.2865 C   0  0  0  0  0  0  0  0  0  0  0  0
    2.7767    0.8225    0.0387 C   0  0  0  0  0  0  0  0  0  0  0  0
    1.4502    0.3611    0.0319 C   0  0  0  0  0  0  0  0  0  0  0  0
    0.3149    1.3235   -0.2649 C   0  0  1  0  0  0  0  0  0  0  0  0
    0.4122    1.7722   -1.5915 O   0  0  0  0  0  0  0  0  0  0  0  0
   -0.9857    0.6770   -0.0771 N   0  0  0  0  0  0  0  0  0  0  0  0
   -2.2767    1.3185   -0.2468 C   0  0  0  0  0  0  0  0  0  0  0  0
   -3.3333    0.2251    0.0266 C   0  0  0  0  0  0  0  0  0  0  0  0
   -2.5779   -1.1141    0.1905 C   0  0  1  0  0  0  0  0  0  0  0  0
   -2.8738   -2.0153   -0.8476 O   0  0  0  0  0  0  0  0  0  0  0  0
   -1.1568   -0.7033    0.1557 C   0  0  0  0  0  0  0  0  0  0  0  0
   -0.1525   -1.5027    0.3250 N   0  0  0  0  0  0  0  0  0  0  0  0
    1.1917   -1.0065    0.2887 C   0  0  0  0  0  0  0  0  0  0  0  0
    2.2547   -1.8838    0.5328 C   0  0  0  0  0  0  0  0  0  0  0  0
    4.3886   -2.0946    0.7214 H   0  0  0  0  0  0  0  0  0  0  0  0
    4.8503    0.3001    0.2883 H   0  0  0  0  0  0  0  0  0  0  0  0
    2.9946    1.8663   -0.1499 H   0  0  0  0  0  0  0  0  0  0  0  0
    0.3792    2.1822    0.4434 H   0  0  0  0  0  0  0  0  0  0  0  0
    1.0448    2.5373   -1.5944 H   0  0  0  0  0  0  0  0  0  0  0  0
   -2.3811    2.1609    0.4704 H   0  0  0  0  0  0  0  0  0  0  0  0
   -2.3735    1.6961   -1.2876 H   0  0  0  0  0  0  0  0  0  0  0  0
   -3.8788    0.4620    0.9663 H   0  0  0  0  0  0  0  0  0  0  0  0
   -4.0730    0.1800   -0.8026 H   0  0  0  0  0  0  0  0  0  0  0  0
   -2.8158   -1.5821    1.1699 H   0  0  0  0  0  0  0  0  0  0  0  0
   -2.6403   -1.5770   -1.7087 H   0  0  0  0  0  0  0  0  0  0  0  0
    2.0611   -2.9307    0.7306 H   0  0  0  0  0  0  0  0  0  0  0  0
  1  2  2  0
  1 15  1  0
  2  3  1  0
  3  4  2  0
  4 14  1  0
  4  5  1  0
  5  7  1  0
  5  6  1  0
  7  8  1  0
  7 12  1  0
  8  9  1  0
  9 10  1  0
 10 12  1  0
 10 11  1  0
 12 13  2  0
 13 14  1  0
 14 15  2  0
  1 16  1  0
  2 17  1  0
  3 18  1  0
  5 19  1  1
  6 20  1  0
  8 21  1  0
  8 22  1  0
  9 23  1  0
  9 24  1  0
 10 25  1  1
 11 26  1  0
 15 27  1  0
M  END
$$$$
