CC(c1cc(O)c(C)cc1)C
     RDKit          3D

 25 25  0  0  0  0  0  0  0  0999 V2000
   -2.6775    0.3796    1.1712 C   0  0  0  0  0  0  0  0  0  0  0  0
   -2.0594   -0.4848    0.0658 C   0  0  0  0  0  0  0  0  0  0  0  0
   -0.5459   -0.3744    0.0671 C   0  0  0  0  0  0  0  0  0  0  0  0
    0.0935    0.8562   -0.1716 C   0  0  0  0  0  0  0  0  0  0  0  0
    1.4927    0.9480   -0.1683 C   0  0  0  0  0  0  0  0  0  0  0  0
    2.1124    2.1749   -0.4066 O   0  0  0  0  0  0  0  0  0  0  0  0
    2.2706   -0.1973    0.0753 C   0  0  0  0  0  0  0  0  0  0  0  0
    3.7704   -0.1070    0.0805 C   0  0  0  0  0  0  0  0  0  0  0  0
    1.6346   -1.4250    0.3136 C   0  0  0  0  0  0  0  0  0  0  0  0
    0.2404   -1.5127    0.3095 C   0  0  0  0  0  0  0  0  0  0  0  0
   -2.6388   -0.1212   -1.3065 C   0  0  0  0  0  0  0  0  0  0  0  0
   -3.7748    0.2120    1.2158 H   0  0  0  0  0  0  0  0  0  0  0  0
   -2.2444    0.1040    2.1566 H   0  0  0  0  0  0  0  0  0  0  0  0
   -2.4933    1.4593    0.9870 H   0  0  0  0  0  0  0  0  0  0  0  0
   -2.3543   -1.5378    0.2740 H   0  0  0  0  0  0  0  0  0  0  0  0
   -0.4925    1.7463   -0.3607 H   0  0  0  0  0  0  0  0  0  0  0  0
    1.5755    3.0156   -0.5849 H   0  0  0  0  0  0  0  0  0  0  0  0
    4.2393   -1.0927    0.2869 H   0  0  0  0  0  0  0  0  0  0  0  0
    4.1267    0.2492   -0.9090 H   0  0  0  0  0  0  0  0  0  0  0  0
    4.0990    0.6074    0.8645 H   0  0  0  0  0  0  0  0  0  0  0  0
    2.2168   -2.3183    0.5032 H   0  0  0  0  0  0  0  0  0  0  0  0
   -0.2241   -2.4729    0.4963 H   0  0  0  0  0  0  0  0  0  0  0  0
   -2.4536    0.9464   -1.5505 H   0  0  0  0  0  0  0  0  0  0  0  0
   -2.1780   -0.7552   -2.0941 H   0  0  0  0  0  0  0  0  0  0  0  0
   -3.7353   -0.2996   -1.3153 H   0  0  0  0  0  0  0  0  0  0  0  0
  1  2  1  0
  2 11  1  0
  2  3  1  0
  3 10  2  0
  3  4  1  0
  4  5  2  0
  5  7  1  0
  5  6  1  0
  7  8  1  0
  7  9  2  0
  9 10  1  0
  1 12  1  0
  1 13  1  0
  1 14  1  0
  2 15  1  0
  4 16  1  0
  6 17  1  0
  8 18  1  0
  8 19  1  0
  8 20  1  0
  9 21  1  0
 10 22  1  0
 11 23  1  0
 11 24  1  0
 11 25  1  0
M  END
$$$$
