O=C1C=CC2(C)C(CCC3C2(F)C(O)CC4(C)C3CC(C)C4(O)C(CO)=O)=C1
     RDKit          3D

 57 60  0  0  1  0  0  0  0  0999 V2000
   -5.6745    2.7907    0.7335 O   0  0  0  0  0  0  0  0  0  0  0  0
   -4.7555    2.0149    0.3611 C   0  0  0  0  0  0  0  0  0  0  0  0
   -3.9589    2.3305   -0.8255 C   0  0  0  0  0  0  0  0  0  0  0  0
   -3.0447    1.4680   -1.2766 C   0  0  0  0  0  0  0  0  0  0  0  0
   -2.9018    0.0546   -0.7124 C   0  0  2  0  0  0  0  0  0  0  0  0
   -3.7199   -0.8616   -1.6515 C   0  0  0  0  0  0  0  0  0  0  0  0
   -3.5224   -0.0586    0.7022 C   0  0  0  0  0  0  0  0  0  0  0  0
   -2.9372   -1.0726    1.6690 C   0  0  0  0  0  0  0  0  0  0  0  0
   -1.4288   -0.8060    1.9133 C   0  0  0  0  0  0  0  0  0  0  0  0
   -0.7885    0.0008    0.7564 C   0  0  2  0  0  0  0  0  0  0  0  0
   -1.3865   -0.4277   -0.6295 C   0  0  1  0  0  0  0  0  0  0  0  0
   -1.4279   -1.8122   -0.6897 F   0  0  0  0  0  0  0  0  0  0  0  0
   -0.4294    0.0004   -1.7892 C   0  0  1  0  0  0  0  0  0  0  0  0
   -0.2329    1.3927   -1.7885 O   0  0  0  0  0  0  0  0  0  0  0  0
    0.9610   -0.7135   -1.6710 C   0  0  0  0  0  0  0  0  0  0  0  0
    1.5090   -0.8667   -0.1954 C   0  0  2  0  0  0  0  0  0  0  0  0
    1.3311   -2.3553    0.2686 C   0  0  0  0  0  0  0  0  0  0  0  0
    0.7637    0.0969    0.7382 C   0  0  2  0  0  0  0  0  0  0  0  0
    1.5572    0.1227    2.0337 C   0  0  0  0  0  0  0  0  0  0  0  0
    3.0318    0.0463    1.5648 C   0  0  1  0  0  0  0  0  0  0  0  0
    3.8784   -0.8104    2.5226 C   0  0  0  0  0  0  0  0  0  0  0  0
    3.0198   -0.4456    0.0610 C   0  0  1  0  0  0  0  0  0  0  0  0
    3.8790   -1.5618   -0.0752 O   0  0  0  0  0  0  0  0  0  0  0  0
    3.5421    0.6625   -0.8853 C   0  0  0  0  0  0  0  0  0  0  0  0
    3.1620    2.1266   -0.8015 C   0  0  0  0  0  0  0  0  0  0  0  0
    4.3115    2.9260   -0.8698 O   0  0  0  0  0  0  0  0  0  0  0  0
    4.3140    0.3486   -1.7812 O   0  0  0  0  0  0  0  0  0  0  0  0
   -4.4303    0.8241    1.1478 C   0  0  0  0  0  0  0  0  0  0  0  0
   -4.1169    3.2682   -1.3441 H   0  0  0  0  0  0  0  0  0  0  0  0
   -2.5677    1.7146   -2.2147 H   0  0  0  0  0  0  0  0  0  0  0  0
   -3.7740   -1.9009   -1.2624 H   0  0  0  0  0  0  0  0  0  0  0  0
   -4.7649   -0.4927   -1.7460 H   0  0  0  0  0  0  0  0  0  0  0  0
   -3.2688   -0.8881   -2.6663 H   0  0  0  0  0  0  0  0  0  0  0  0
   -3.0670   -2.0861    1.2332 H   0  0  0  0  0  0  0  0  0  0  0  0
   -3.4737   -1.0775    2.6433 H   0  0  0  0  0  0  0  0  0  0  0  0
   -1.3126   -0.2269    2.8558 H   0  0  0  0  0  0  0  0  0  0  0  0
   -0.9108   -1.7742    2.0628 H   0  0  0  0  0  0  0  0  0  0  0  0
   -1.1269    1.0509    0.9326 H   0  0  0  0  0  0  0  0  0  0  0  0
   -0.8964   -0.3036   -2.7548 H   0  0  0  0  0  0  0  0  0  0  0  0
    0.1014    1.6384   -2.6906 H   0  0  0  0  0  0  0  0  0  0  0  0
    1.6771   -0.1821   -2.3263 H   0  0  0  0  0  0  0  0  0  0  0  0
    0.8648   -1.7154   -2.1434 H   0  0  0  0  0  0  0  0  0  0  0  0
    1.7922   -3.0525   -0.4623 H   0  0  0  0  0  0  0  0  0  0  0  0
    0.2912   -2.6773    0.3883 H   0  0  0  0  0  0  0  0  0  0  0  0
    1.8100   -2.5469    1.2469 H   0  0  0  0  0  0  0  0  0  0  0  0
    0.9253    1.1075    0.3204 H   0  0  0  0  0  0  0  0  0  0  0  0
    1.3628    1.0586    2.6023 H   0  0  0  0  0  0  0  0  0  0  0  0
    1.2838   -0.7449    2.6719 H   0  0  0  0  0  0  0  0  0  0  0  0
    3.4678    1.0645    1.6405 H   0  0  0  0  0  0  0  0  0  0  0  0
    3.5321   -1.8630    2.5492 H   0  0  0  0  0  0  0  0  0  0  0  0
    4.9433   -0.7906    2.2072 H   0  0  0  0  0  0  0  0  0  0  0  0
    3.8180   -0.3959    3.5516 H   0  0  0  0  0  0  0  0  0  0  0  0
    3.7652   -1.9269   -0.9923 H   0  0  0  0  0  0  0  0  0  0  0  0
    2.5958    2.3941    0.1107 H   0  0  0  0  0  0  0  0  0  0  0  0
    2.5165    2.3685   -1.6710 H   0  0  0  0  0  0  0  0  0  0  0  0
    4.7687    2.8399    0.0076 H   0  0  0  0  0  0  0  0  0  0  0  0
   -4.8575    0.7257    2.1387 H   0  0  0  0  0  0  0  0  0  0  0  0
  1  2  2  0
  2  3  1  0
  2 28  1  0
  3  4  2  0
  4  5  1  0
  5  6  1  6
  5  7  1  0
  5 11  1  0
  7  8  1  0
  7 28  2  0
  8  9  1  0
  9 10  1  0
 10 18  1  0
 10 11  1  0
 11 13  1  0
 11 12  1  1
 13 15  1  0
 13 14  1  0
 15 16  1  0
 16 17  1  1
 16 18  1  0
 16 22  1  0
 18 19  1  0
 19 20  1  0
 20 21  1  0
 20 22  1  0
 22 24  1  6
 22 23  1  0
 24 25  1  0
 24 27  2  0
 25 26  1  0
  3 29  1  0
  4 30  1  0
  6 31  1  0
  6 32  1  0
  6 33  1  0
  8 34  1  0
  8 35  1  0
  9 36  1  0
  9 37  1  0
 10 38  1  1
 13 39  1  6
 14 40  1  0
 15 41  1  0
 15 42  1  0
 17 43  1  0
 17 44  1  0
 17 45  1  0
 18 46  1  6
 19 47  1  0
 19 48  1  0
 20 49  1  6
 21 50  1  0
 21 51  1  0
 21 52  1  0
 23 53  1  0
 25 54  1  0
 25 55  1  0
 26 56  1  0
 28 57  1  0
M  END
$$$$
