
     RDKit          3D

 59 62  0  0  1  0  0  0  0  0999 V2000
   -7.1430    1.1656    0.8742 O   0  0  0  0  0  0  0  0  0  0  0  0
   -6.0116    0.8212    0.4409 C   0  0  0  0  0  0  0  0  0  0  0  0
   -5.4404    1.5121   -0.7617 C   0  0  0  0  0  0  0  0  0  0  0  0
   -3.9226    1.3004   -0.8688 C   0  0  0  0  0  0  0  0  0  0  0  0
   -3.5074   -0.1931   -0.6729 C   0  0  2  0  0  0  0  0  0  0  0  0
   -4.0687   -1.0533   -1.8327 C   0  0  0  0  0  0  0  0  0  0  0  0
   -4.1093   -0.7243    0.6421 C   0  0  0  0  0  0  0  0  0  0  0  0
   -3.3043   -1.7147    1.4706 C   0  0  0  0  0  0  0  0  0  0  0  0
   -1.8877   -1.1773    1.8100 C   0  0  0  0  0  0  0  0  0  0  0  0
   -1.4508   -0.0386    0.8588 C   0  0  1  0  0  0  0  0  0  0  0  0
    0.0375    0.4057    0.9358 C   0  0  1  0  0  0  0  0  0  0  0  0
    0.8100    0.2365    2.2414 C   0  0  0  0  0  0  0  0  0  0  0  0
    2.2903    0.3400    1.8337 C   0  0  0  0  0  0  0  0  0  0  0  0
    2.3310    0.5151    0.2839 C   0  0  1  0  0  0  0  0  0  0  0  0
    2.3335    1.8953   -0.0133 O   0  0  0  0  0  0  0  0  0  0  0  0
    3.5589   -0.1114   -0.3849 C   0  0  0  0  0  0  0  0  0  0  0  0
    4.8806   -0.2613    0.3223 C   0  0  0  0  0  0  0  0  0  0  0  0
    5.9040    0.3540   -0.4535 O   0  0  0  0  0  0  0  0  0  0  0  0
    7.2456    0.3647   -0.0619 C   0  0  0  0  0  0  0  0  0  0  0  0
    8.2521    1.0616   -0.9155 C   0  0  0  0  0  0  0  0  0  0  0  0
    7.6155   -0.2268    0.9890 O   0  0  0  0  0  0  0  0  0  0  0  0
    3.5052   -0.4105   -1.5686 O   0  0  0  0  0  0  0  0  0  0  0  0
    0.9664   -0.1203   -0.1668 C   0  0  1  0  0  0  0  0  0  0  0  0
    1.0758   -1.6829   -0.1579 C   0  0  0  0  0  0  0  0  0  0  0  0
    0.4311    0.3831   -1.5434 C   0  0  0  0  0  0  0  0  0  0  0  0
   -1.0820    0.2966   -1.6735 C   0  0  0  0  0  0  0  0  0  0  0  0
   -1.9387   -0.3598   -0.5914 C   0  0  2  0  0  0  0  0  0  0  0  0
   -1.5857    0.6634   -2.7223 O   0  0  0  0  0  0  0  0  0  0  0  0
   -5.2828   -0.2669    1.1105 C   0  0  0  0  0  0  0  0  0  0  0  0
   -5.9452    1.1310   -1.6745 H   0  0  0  0  0  0  0  0  0  0  0  0
   -5.6485    2.6019   -0.6937 H   0  0  0  0  0  0  0  0  0  0  0  0
   -3.6038    1.6798   -1.8605 H   0  0  0  0  0  0  0  0  0  0  0  0
   -3.4318    1.9415   -0.1070 H   0  0  0  0  0  0  0  0  0  0  0  0
   -5.1779   -1.0816   -1.8126 H   0  0  0  0  0  0  0  0  0  0  0  0
   -3.7181   -2.1036   -1.7554 H   0  0  0  0  0  0  0  0  0  0  0  0
   -3.7556   -0.6525   -2.8173 H   0  0  0  0  0  0  0  0  0  0  0  0
   -3.8279   -1.9906    2.4129 H   0  0  0  0  0  0  0  0  0  0  0  0
   -3.2037   -2.6499    0.8773 H   0  0  0  0  0  0  0  0  0  0  0  0
   -1.8867   -0.7944    2.8540 H   0  0  0  0  0  0  0  0  0  0  0  0
   -1.1668   -2.0203    1.7622 H   0  0  0  0  0  0  0  0  0  0  0  0
   -2.0167    0.8492    1.2188 H   0  0  0  0  0  0  0  0  0  0  0  0
   -0.0134    1.5139    0.7859 H   0  0  0  0  0  0  0  0  0  0  0  0
    0.5354    1.0309    2.9695 H   0  0  0  0  0  0  0  0  0  0  0  0
    0.6218   -0.7560    2.7024 H   0  0  0  0  0  0  0  0  0  0  0  0
    2.8093   -0.5929    2.1459 H   0  0  0  0  0  0  0  0  0  0  0  0
    2.7771    1.1926    2.3560 H   0  0  0  0  0  0  0  0  0  0  0  0
    3.1823    2.2829    0.3297 H   0  0  0  0  0  0  0  0  0  0  0  0
    4.8626    0.2137    1.3247 H   0  0  0  0  0  0  0  0  0  0  0  0
    5.1013   -1.3435    0.4413 H   0  0  0  0  0  0  0  0  0  0  0  0
    8.5675    0.3901   -1.7418 H   0  0  0  0  0  0  0  0  0  0  0  0
    9.1415    1.3458   -0.3136 H   0  0  0  0  0  0  0  0  0  0  0  0
    7.8035    1.9819   -1.3459 H   0  0  0  0  0  0  0  0  0  0  0  0
    1.5372   -2.0591    0.7775 H   0  0  0  0  0  0  0  0  0  0  0  0
    0.1107   -2.1980   -0.2535 H   0  0  0  0  0  0  0  0  0  0  0  0
    1.6981   -2.0413   -1.0022 H   0  0  0  0  0  0  0  0  0  0  0  0
    0.7020    1.4471   -1.7039 H   0  0  0  0  0  0  0  0  0  0  0  0
    0.8994   -0.1938   -2.3697 H   0  0  0  0  0  0  0  0  0  0  0  0
   -1.7653   -1.4393   -0.7627 H   0  0  0  0  0  0  0  0  0  0  0  0
   -5.6911   -0.6599    2.0343 H   0  0  0  0  0  0  0  0  0  0  0  0
  1  2  2  0
  2  3  1  0
  2 29  1  0
  3  4  1  0
  4  5  1  0
  5  6  1  6
  5 27  1  0
  5  7  1  0
  7  8  1  0
  7 29  2  0
  8  9  1  0
  9 10  1  0
 10 11  1  0
 10 27  1  0
 11 12  1  0
 11 23  1  0
 12 13  1  0
 13 14  1  0
 14 23  1  0
 14 16  1  6
 14 15  1  0
 16 17  1  0
 16 22  2  0
 17 18  1  0
 18 19  1  0
 19 20  1  0
 19 21  2  0
 23 24  1  6
 23 25  1  0
 25 26  1  0
 26 27  1  0
 26 28  2  0
  3 30  1  0
  3 31  1  0
  4 32  1  0
  4 33  1  0
  6 34  1  0
  6 35  1  0
  6 36  1  0
  8 37  1  0
  8 38  1  0
  9 39  1  0
  9 40  1  0
 10 41  1  1
 11 42  1  6
 12 43  1  0
 12 44  1  0
 13 45  1  0
 13 46  1  0
 15 47  1  0
 17 48  1  0
 17 49  1  0
 20 50  1  0
 20 51  1  0
 20 52  1  0
 24 53  1  0
 24 54  1  0
 24 55  1  0
 25 56  1  0
 25 57  1  0
 27 58  1  6
 29 59  1  0
M  END
$$$$
