O=C1C=CC2(C)C(CCC3C2C(O)CC4(C)C3CCC4(O)C(CO)=O)=C1
     RDKit          3D

 54 57  0  0  1  0  0  0  0  0999 V2000
   -5.8749    2.0596    1.3477 O   0  0  0  0  0  0  0  0  0  0  0  0
   -4.8856    1.4678    0.8416 C   0  0  0  0  0  0  0  0  0  0  0  0
   -4.2246    2.0171   -0.3429 C   0  0  0  0  0  0  0  0  0  0  0  0
   -3.2237    1.3556   -0.9285 C   0  0  0  0  0  0  0  0  0  0  0  0
   -2.8204   -0.0584   -0.5182 C   0  0  2  0  0  0  0  0  0  0  0  0
   -3.4761   -1.0159   -1.5369 C   0  0  0  0  0  0  0  0  0  0  0  0
   -3.3580   -0.4299    0.8807 C   0  0  0  0  0  0  0  0  0  0  0  0
   -2.6021   -1.4737    1.6760 C   0  0  0  0  0  0  0  0  0  0  0  0
   -1.1447   -1.0202    1.9372 C   0  0  0  0  0  0  0  0  0  0  0  0
   -0.6522    0.0293    0.9045 C   0  0  2  0  0  0  0  0  0  0  0  0
   -1.2521   -0.2681   -0.5083 C   0  0  2  0  0  0  0  0  0  0  0  0
   -0.4081    0.3556   -1.6739 C   0  0  1  0  0  0  0  0  0  0  0  0
   -0.4315    1.7652   -1.7122 O   0  0  0  0  0  0  0  0  0  0  0  0
    1.0750   -0.1421   -1.6654 C   0  0  0  0  0  0  0  0  0  0  0  0
    1.6447   -0.5151   -0.2471 C   0  0  2  0  0  0  0  0  0  0  0  0
    1.5392   -2.0660   -0.0355 C   0  0  0  0  0  0  0  0  0  0  0  0
    0.8853    0.2558    0.8463 C   0  0  2  0  0  0  0  0  0  0  0  0
    1.7283    0.1231    2.1082 C   0  0  0  0  0  0  0  0  0  0  0  0
    3.1800    0.0455    1.5964 C   0  0  0  0  0  0  0  0  0  0  0  0
    3.1345   -0.0765    0.0432 C   0  0  1  0  0  0  0  0  0  0  0  0
    4.0541   -1.0698   -0.3540 O   0  0  0  0  0  0  0  0  0  0  0  0
    3.5389    1.2750   -0.5783 C   0  0  0  0  0  0  0  0  0  0  0  0
    4.7080    1.4109   -1.5216 C   0  0  0  0  0  0  0  0  0  0  0  0
    5.9119    1.3717   -0.8049 O   0  0  0  0  0  0  0  0  0  0  0  0
    2.9439    2.2951   -0.2632 O   0  0  0  0  0  0  0  0  0  0  0  0
   -4.3503    0.2576    1.4670 C   0  0  0  0  0  0  0  0  0  0  0  0
   -4.5529    2.9661   -0.7490 H   0  0  0  0  0  0  0  0  0  0  0  0
   -2.8405    1.7671   -1.8517 H   0  0  0  0  0  0  0  0  0  0  0  0
   -4.5813   -0.8920   -1.5325 H   0  0  0  0  0  0  0  0  0  0  0  0
   -3.2537   -2.0772   -1.2943 H   0  0  0  0  0  0  0  0  0  0  0  0
   -3.1100   -0.8105   -2.5653 H   0  0  0  0  0  0  0  0  0  0  0  0
   -3.1002   -1.7038    2.6436 H   0  0  0  0  0  0  0  0  0  0  0  0
   -2.5904   -2.4178    1.0902 H   0  0  0  0  0  0  0  0  0  0  0  0
   -0.4930   -1.9171    1.9377 H   0  0  0  0  0  0  0  0  0  0  0  0
   -1.0833   -0.5721    2.9533 H   0  0  0  0  0  0  0  0  0  0  0  0
   -1.0876    0.9992    1.2431 H   0  0  0  0  0  0  0  0  0  0  0  0
   -1.1335   -1.3547   -0.6715 H   0  0  0  0  0  0  0  0  0  0  0  0
   -0.8567    0.0093   -2.6296 H   0  0  0  0  0  0  0  0  0  0  0  0
   -0.5297    2.1224   -0.7955 H   0  0  0  0  0  0  0  0  0  0  0  0
    1.6964    0.6262   -2.1667 H   0  0  0  0  0  0  0  0  0  0  0  0
    1.1485   -1.0260   -2.3365 H   0  0  0  0  0  0  0  0  0  0  0  0
    0.5129   -2.4583   -0.0543 H   0  0  0  0  0  0  0  0  0  0  0  0
    1.9842   -2.3811    0.9309 H   0  0  0  0  0  0  0  0  0  0  0  0
    2.0799   -2.6094   -0.8383 H   0  0  0  0  0  0  0  0  0  0  0  0
    0.9720    1.3318    0.5955 H   0  0  0  0  0  0  0  0  0  0  0  0
    1.4779   -0.8015    2.6692 H   0  0  0  0  0  0  0  0  0  0  0  0
    1.5838    0.9986    2.7787 H   0  0  0  0  0  0  0  0  0  0  0  0
    3.7556    0.9370    1.9317 H   0  0  0  0  0  0  0  0  0  0  0  0
    3.6736   -0.8454    2.0446 H   0  0  0  0  0  0  0  0  0  0  0  0
    3.8975   -1.2561   -1.3163 H   0  0  0  0  0  0  0  0  0  0  0  0
    4.6800    0.6302   -2.3136 H   0  0  0  0  0  0  0  0  0  0  0  0
    4.6478    2.3886   -2.0463 H   0  0  0  0  0  0  0  0  0  0  0  0
    6.1716    0.4172   -0.7275 H   0  0  0  0  0  0  0  0  0  0  0  0
   -4.7082   -0.0198    2.4514 H   0  0  0  0  0  0  0  0  0  0  0  0
  1  2  2  0
  2  3  1  0
  2 26  1  0
  3  4  2  0
  4  5  1  0
  5  6  1  6
  5 11  1  0
  5  7  1  0
  7  8  1  0
  7 26  2  0
  8  9  1  0
  9 10  1  0
 10 17  1  0
 10 11  1  0
 11 12  1  0
 12 14  1  0
 12 13  1  0
 14 15  1  0
 15 16  1  1
 15 17  1  0
 15 20  1  0
 17 18  1  0
 18 19  1  0
 19 20  1  0
 20 22  1  6
 20 21  1  0
 22 23  1  0
 22 25  2  0
 23 24  1  0
  3 27  1  0
  4 28  1  0
  6 29  1  0
  6 30  1  0
  6 31  1  0
  8 32  1  0
  8 33  1  0
  9 34  1  0
  9 35  1  0
 10 36  1  1
 11 37  1  6
 12 38  1  6
 13 39  1  0
 14 40  1  0
 14 41  1  0
 16 42  1  0
 16 43  1  0
 16 44  1  0
 17 45  1  6
 18 46  1  0
 18 47  1  0
 19 48  1  0
 19 49  1  0
 21 50  1  0
 23 51  1  0
 23 52  1  0
 24 53  1  0
 26 54  1  0
M  END
$$$$
