
     RDKit          3D

 32 36  0  0  0  0  0  0  0  0999 V2000
   -0.3628    0.1846    0.1176 C   0  0  0  0  0  0  0  0  0  0  0  0
   -1.7270   -0.1930    0.0693 C   0  0  0  0  0  0  0  0  0  0  0  0
   -2.0964   -1.4432   -0.4691 C   0  0  0  0  0  0  0  0  0  0  0  0
   -3.4499   -1.8111   -0.5140 C   0  0  0  0  0  0  0  0  0  0  0  0
   -4.4310   -0.9438   -0.0275 C   0  0  0  0  0  0  0  0  0  0  0  0
   -4.0742    0.2963    0.5074 C   0  0  0  0  0  0  0  0  0  0  0  0
   -2.7259    0.6808    0.5603 C   0  0  0  0  0  0  0  0  0  0  0  0
   -2.3603    1.9218    1.0949 C   0  0  0  0  0  0  0  0  0  0  0  0
   -1.0179    2.2988    1.1449 C   0  0  0  0  0  0  0  0  0  0  0  0
   -0.0169    1.4417    0.6613 C   0  0  0  0  0  0  0  0  0  0  0  0
    1.3216    1.8313    0.7175 C   0  0  0  0  0  0  0  0  0  0  0  0
    2.3319    0.9901    0.2403 C   0  0  0  0  0  0  0  0  0  0  0  0
    2.0126   -0.2825   -0.3129 C   0  0  0  0  0  0  0  0  0  0  0  0
    3.0820   -1.0882   -0.7792 C   0  0  0  0  0  0  0  0  0  0  0  0
    4.4040   -0.6449   -0.6970 C   0  0  0  0  0  0  0  0  0  0  0  0
    4.6965    0.6019   -0.1531 C   0  0  0  0  0  0  0  0  0  0  0  0
    3.6684    1.4168    0.3136 C   0  0  0  0  0  0  0  0  0  0  0  0
    0.6444   -0.6913   -0.3752 C   0  0  0  0  0  0  0  0  0  0  0  0
    0.2376   -1.9386   -0.9088 C   0  0  0  0  0  0  0  0  0  0  0  0
   -1.1091   -2.3038   -0.9531 C   0  0  0  0  0  0  0  0  0  0  0  0
   -3.7487   -2.7682   -0.9247 H   0  0  0  0  0  0  0  0  0  0  0  0
   -5.4731   -1.2341   -0.0653 H   0  0  0  0  0  0  0  0  0  0  0  0
   -4.8510    0.9539    0.8792 H   0  0  0  0  0  0  0  0  0  0  0  0
   -3.1134    2.6020    1.4749 H   0  0  0  0  0  0  0  0  0  0  0  0
   -0.7614    3.2649    1.5636 H   0  0  0  0  0  0  0  0  0  0  0  0
    1.5802    2.7985    1.1365 H   0  0  0  0  0  0  0  0  0  0  0  0
    2.9336   -2.0630   -1.2118 H   0  0  0  0  0  0  0  0  0  0  0  0
    5.2073   -1.2744   -1.0584 H   0  0  0  0  0  0  0  0  0  0  0  0
    5.7236    0.9383   -0.0929 H   0  0  0  0  0  0  0  0  0  0  0  0
    3.9187    2.3842    0.7335 H   0  0  0  0  0  0  0  0  0  0  0  0
    0.9353   -2.6583   -1.3019 H   0  0  0  0  0  0  0  0  0  0  0  0
   -1.3786   -3.2676   -1.3695 H   0  0  0  0  0  0  0  0  0  0  0  0
  1  2  2  0
  1 18  1  0
  1 10  1  0
  2  7  1  0
  2  3  1  0
  3 20  1  0
  3  4  2  0
  4  5  1  0
  5  6  2  0
  6  7  1  0
  7  8  2  0
  8  9  1  0
  9 10  2  0
 10 11  1  0
 11 12  2  0
 12 13  1  0
 12 17  1  0
 13 18  2  0
 13 14  1  0
 14 15  2  0
 15 16  1  0
 16 17  2  0
 18 19  1  0
 19 20  2  0
  4 21  1  0
  5 22  1  0
  6 23  1  0
  8 24  1  0
  9 25  1  0
 11 26  1  0
 14 27  1  0
 15 28  1  0
 16 29  1  0
 17 30  1  0
 19 31  1  0
 20 32  1  0
M  END
$$$$
