
     RDKit          3D

 44 46  0  0  0  0  0  0  0  0999 V2000
    4.7071   -1.5698    0.2272 C   0  0  0  0  0  0  0  0  0  0  0  0
    3.8557   -0.7134    1.0723 N   0  0  0  0  0  0  0  0  0  0  0  0
    2.8097   -0.0483    0.2631 C   0  0  0  0  0  0  0  0  0  0  0  0
    1.5210    0.0809    1.0832 C   0  0  0  0  0  0  0  0  0  0  0  0
    0.5265    0.9759    0.3876 C   0  0  0  0  0  0  0  0  0  0  0  0
   -0.5750    0.5528   -0.2679 C   0  0  0  0  0  0  0  0  0  0  0  0
   -1.5701    1.5555   -0.7347 C   0  0  0  0  0  0  0  0  0  0  0  0
   -1.0883    2.6726   -1.4563 C   0  0  0  0  0  0  0  0  0  0  0  0
   -1.9503    3.6880   -1.8637 C   0  0  0  0  0  0  0  0  0  0  0  0
   -3.3103    3.6052   -1.5769 C   0  0  0  0  0  0  0  0  0  0  0  0
   -3.8144    2.5083   -0.8866 C   0  0  0  0  0  0  0  0  0  0  0  0
   -2.9663    1.4757   -0.4360 C   0  0  0  0  0  0  0  0  0  0  0  0
   -3.6540    0.3377    0.3076 C   0  0  0  0  0  0  0  0  0  0  0  0
   -2.7807   -0.5270    1.2262 C   0  0  0  0  0  0  0  0  0  0  0  0
   -1.9116   -1.4377    0.4027 C   0  0  0  0  0  0  0  0  0  0  0  0
   -0.8897   -0.8869   -0.3836 C   0  0  0  0  0  0  0  0  0  0  0  0
   -0.1361   -1.7178   -1.2254 C   0  0  0  0  0  0  0  0  0  0  0  0
   -0.3843   -3.0946   -1.2623 C   0  0  0  0  0  0  0  0  0  0  0  0
   -1.3788   -3.6512   -0.4574 C   0  0  0  0  0  0  0  0  0  0  0  0
   -2.1413   -2.8285    0.3739 C   0  0  0  0  0  0  0  0  0  0  0  0
    4.6892    0.2814    1.7704 C   0  0  0  0  0  0  0  0  0  0  0  0
    5.4590   -2.0975    0.8558 H   0  0  0  0  0  0  0  0  0  0  0  0
    5.2322   -0.9739   -0.5532 H   0  0  0  0  0  0  0  0  0  0  0  0
    4.0958   -2.3487   -0.2704 H   0  0  0  0  0  0  0  0  0  0  0  0
    2.5671   -0.6401   -0.6473 H   0  0  0  0  0  0  0  0  0  0  0  0
    3.1483    0.9533   -0.0978 H   0  0  0  0  0  0  0  0  0  0  0  0
    1.1059   -0.9300    1.2829 H   0  0  0  0  0  0  0  0  0  0  0  0
    1.7448    0.5320    2.0719 H   0  0  0  0  0  0  0  0  0  0  0  0
    0.7026    2.0394    0.4936 H   0  0  0  0  0  0  0  0  0  0  0  0
   -0.0310    2.7649   -1.6955 H   0  0  0  0  0  0  0  0  0  0  0  0
   -1.5618    4.5450   -2.3998 H   0  0  0  0  0  0  0  0  0  0  0  0
   -3.9814    4.3892   -1.9032 H   0  0  0  0  0  0  0  0  0  0  0  0
   -4.8830    2.4640   -0.6872 H   0  0  0  0  0  0  0  0  0  0  0  0
   -4.1719   -0.3109   -0.4319 H   0  0  0  0  0  0  0  0  0  0  0  0
   -4.4527    0.7764    0.9523 H   0  0  0  0  0  0  0  0  0  0  0  0
   -3.4564   -1.1305    1.8764 H   0  0  0  0  0  0  0  0  0  0  0  0
   -2.1665    0.1082    1.9057 H   0  0  0  0  0  0  0  0  0  0  0  0
    0.6403   -1.3021   -1.8531 H   0  0  0  0  0  0  0  0  0  0  0  0
    0.1979   -3.7342   -1.9171 H   0  0  0  0  0  0  0  0  0  0  0  0
   -1.5647   -4.7190   -0.4806 H   0  0  0  0  0  0  0  0  0  0  0  0
   -2.9040   -3.2736    0.9968 H   0  0  0  0  0  0  0  0  0  0  0  0
    4.0559    0.9734    2.3719 H   0  0  0  0  0  0  0  0  0  0  0  0
    5.2899    0.8863    1.0497 H   0  0  0  0  0  0  0  0  0  0  0  0
    5.3756   -0.2302    2.4781 H   0  0  0  0  0  0  0  0  0  0  0  0
  1  2  1  0
  2 21  1  0
  2  3  1  0
  3  4  1  0
  4  5  1  0
  5  6  2  0
  6 16  1  0
  6  7  1  0
  7  8  1  0
  7 12  2  0
  8  9  2  0
  9 10  1  0
 10 11  2  0
 11 12  1  0
 12 13  1  0
 13 14  1  0
 14 15  1  0
 15 20  1  0
 15 16  2  0
 16 17  1  0
 17 18  2  0
 18 19  1  0
 19 20  2  0
  1 22  1  0
  1 23  1  0
  1 24  1  0
  3 25  1  0
  3 26  1  0
  4 27  1  0
  4 28  1  0
  5 29  1  0
  8 30  1  0
  9 31  1  0
 10 32  1  0
 11 33  1  0
 13 34  1  0
 13 35  1  0
 14 36  1  0
 14 37  1  0
 17 38  1  0
 18 39  1  0
 19 40  1  0
 20 41  1  0
 21 42  1  0
 21 43  1  0
 21 44  1  0
M  END
$$$$
