CN(C)CCCN1c(cc(Cl)cc3)c3Sc2c1cccc2
     RDKit          3D

 40 42  0  0  0  0  0  0  0  0999 V2000
    4.1588    1.2328   -0.7357 C   0  0  0  0  0  0  0  0  0  0  0  0
    3.5074   -0.0806   -0.5873 N   0  0  0  0  0  0  0  0  0  0  0  0
    4.5235   -1.1421   -0.6675 C   0  0  0  0  0  0  0  0  0  0  0  0
    2.7762   -0.1722    0.6968 C   0  0  0  0  0  0  0  0  0  0  0  0
    1.4001    0.5055    0.6115 C   0  0  0  0  0  0  0  0  0  0  0  0
    0.5457   -0.0558   -0.5420 C   0  0  0  0  0  0  0  0  0  0  0  0
   -0.8890   -0.0461   -0.2172 N   0  0  0  0  0  0  0  0  0  0  0  0
   -1.7287    1.0768   -0.5725 C   0  0  0  0  0  0  0  0  0  0  0  0
   -1.3736    2.3905   -0.2199 C   0  0  0  0  0  0  0  0  0  0  0  0
   -2.2705    3.4455   -0.4233 C   0  0  0  0  0  0  0  0  0  0  0  0
   -1.8198    5.0789    0.0311 Cl  0  0  0  0  0  0  0  0  0  0  0  0
   -3.5354    3.1958   -0.9633 C   0  0  0  0  0  0  0  0  0  0  0  0
   -3.8994    1.8956   -1.3187 C   0  0  0  0  0  0  0  0  0  0  0  0
   -2.9965    0.8426   -1.1404 C   0  0  0  0  0  0  0  0  0  0  0  0
   -3.4125   -0.7972   -1.7337 S   0  0  0  0  0  0  0  0  0  0  0  0
   -2.7957   -1.6103   -0.2594 C   0  0  0  0  0  0  0  0  0  0  0  0
   -1.5335   -1.2526    0.2513 C   0  0  0  0  0  0  0  0  0  0  0  0
   -0.9793   -2.0116    1.2972 C   0  0  0  0  0  0  0  0  0  0  0  0
   -1.6933   -3.0809    1.8470 C   0  0  0  0  0  0  0  0  0  0  0  0
   -2.9655   -3.3982    1.3640 C   0  0  0  0  0  0  0  0  0  0  0  0
   -3.5163   -2.6655    0.3098 C   0  0  0  0  0  0  0  0  0  0  0  0
    4.6986    1.2853   -1.7059 H   0  0  0  0  0  0  0  0  0  0  0  0
    4.8827    1.4228    0.0880 H   0  0  0  0  0  0  0  0  0  0  0  0
    3.4028    2.0441   -0.7508 H   0  0  0  0  0  0  0  0  0  0  0  0
    5.2469   -1.0715    0.1757 H   0  0  0  0  0  0  0  0  0  0  0  0
    5.0776   -1.0754   -1.6289 H   0  0  0  0  0  0  0  0  0  0  0  0
    4.0352   -2.1401   -0.6457 H   0  0  0  0  0  0  0  0  0  0  0  0
    3.3633    0.2797    1.5284 H   0  0  0  0  0  0  0  0  0  0  0  0
    2.5993   -1.2370    0.9732 H   0  0  0  0  0  0  0  0  0  0  0  0
    1.5413    1.5965    0.4833 H   0  0  0  0  0  0  0  0  0  0  0  0
    0.8799    0.3652    1.5826 H   0  0  0  0  0  0  0  0  0  0  0  0
    0.7293    0.5407   -1.4626 H   0  0  0  0  0  0  0  0  0  0  0  0
    0.8549   -1.0980   -0.7809 H   0  0  0  0  0  0  0  0  0  0  0  0
   -0.4276    2.5990    0.2514 H   0  0  0  0  0  0  0  0  0  0  0  0
   -4.2341    4.0090   -1.1137 H   0  0  0  0  0  0  0  0  0  0  0  0
   -4.8716    1.7122   -1.7582 H   0  0  0  0  0  0  0  0  0  0  0  0
   -0.0117   -1.7652    1.7095 H   0  0  0  0  0  0  0  0  0  0  0  0
   -1.2658   -3.6550    2.6588 H   0  0  0  0  0  0  0  0  0  0  0  0
   -3.5178   -4.2227    1.7961 H   0  0  0  0  0  0  0  0  0  0  0  0
   -4.4859   -2.9403   -0.0856 H   0  0  0  0  0  0  0  0  0  0  0  0
  1  2  1  0
  2  3  1  0
  2  4  1  0
  4  5  1  0
  5  6  1  0
  6  7  1  0
  7 17  1  0
  7  8  1  0
  8  9  2  0
  8 14  1  0
  9 10  1  0
 10 12  2  0
 10 11  1  0
 12 13  1  0
 13 14  2  0
 14 15  1  0
 15 16  1  0
 16 21  2  0
 16 17  1  0
 17 18  2  0
 18 19  1  0
 19 20  2  0
 20 21  1  0
  1 22  1  0
  1 23  1  0
  1 24  1  0
  3 25  1  0
  3 26  1  0
  3 27  1  0
  4 28  1  0
  4 29  1  0
  5 30  1  0
  5 31  1  0
  6 32  1  0
  6 33  1  0
  9 34  1  0
 12 35  1  0
 13 36  1  0
 18 37  1  0
 19 38  1  0
 20 39  1  0
 21 40  1  0
M  END
$$$$
