OC(CO)C(O)C(O)C(O)CO
     RDKit          3D

 26 25  0  0  1  0  0  0  0  0999 V2000
    2.4702    0.3225    1.5879 O   0  0  0  0  0  0  0  0  0  0  0  0
    1.5669    0.3139    0.5102 C   0  0  1  0  0  0  0  0  0  0  0  0
    2.3681    0.1324   -0.7871 C   0  0  0  0  0  0  0  0  0  0  0  0
    3.3577    1.1206   -0.8724 O   0  0  0  0  0  0  0  0  0  0  0  0
    0.5310   -0.8198    0.7271 C   0  0  1  0  0  0  0  0  0  0  0  0
   -0.1138   -0.6222    1.9611 O   0  0  0  0  0  0  0  0  0  0  0  0
   -0.5217   -0.9831   -0.4128 C   0  0  1  0  0  0  0  0  0  0  0  0
   -1.4475   -1.9812   -0.0599 O   0  0  0  0  0  0  0  0  0  0  0  0
   -1.2856    0.3111   -0.8128 C   0  0  1  0  0  0  0  0  0  0  0  0
   -2.0946    0.0576   -1.9362 O   0  0  0  0  0  0  0  0  0  0  0  0
   -2.1261    0.9163    0.3275 C   0  0  0  0  0  0  0  0  0  0  0  0
   -2.8910    1.9822   -0.1643 O   0  0  0  0  0  0  0  0  0  0  0  0
    2.0432    0.8337    2.3244 H   0  0  0  0  0  0  0  0  0  0  0  0
    1.0471    1.2984    0.4618 H   0  0  0  0  0  0  0  0  0  0  0  0
    1.6971    0.2213   -1.6685 H   0  0  0  0  0  0  0  0  0  0  0  0
    2.8445   -0.8740   -0.7960 H   0  0  0  0  0  0  0  0  0  0  0  0
    3.8520    0.9445   -1.7149 H   0  0  0  0  0  0  0  0  0  0  0  0
    1.1113   -1.7730    0.7764 H   0  0  0  0  0  0  0  0  0  0  0  0
   -0.4067   -1.5129    2.2877 H   0  0  0  0  0  0  0  0  0  0  0  0
    0.0192   -1.3238   -1.3260 H   0  0  0  0  0  0  0  0  0  0  0  0
   -0.9741   -2.8521   -0.1209 H   0  0  0  0  0  0  0  0  0  0  0  0
   -0.5491    1.0782   -1.1282 H   0  0  0  0  0  0  0  0  0  0  0  0
   -2.8254   -0.5525   -1.6540 H   0  0  0  0  0  0  0  0  0  0  0  0
   -2.7997    0.1418    0.7578 H   0  0  0  0  0  0  0  0  0  0  0  0
   -1.4555    1.2983    1.1268 H   0  0  0  0  0  0  0  0  0  0  0  0
   -3.4179    2.3221    0.6051 H   0  0  0  0  0  0  0  0  0  0  0  0
  1  2  1  0
  2  3  1  0
  2  5  1  0
  3  4  1  0
  5  7  1  0
  5  6  1  0
  7  9  1  0
  7  8  1  0
  9 11  1  0
  9 10  1  0
 11 12  1  0
  1 13  1  0
  2 14  1  6
  3 15  1  0
  3 16  1  0
  4 17  1  0
  5 18  1  1
  6 19  1  0
  7 20  1  6
  8 21  1  0
  9 22  1  6
 10 23  1  0
 11 24  1  0
 11 25  1  0
 12 26  1  0
M  END
$$$$
