O=C(C(N1)=O)C(NC1=O)=O
     RDKit          3D

 12 12  0  0  0  0  0  0  0  0999 V2000
    2.6208    0.6706    0.0153 O   0  0  0  0  0  0  0  0  0  0  0  0
    1.3998    0.3581    0.0082 C   0  0  0  0  0  0  0  0  0  0  0  0
    0.3615    1.3968   -0.0358 C   0  0  0  0  0  0  0  0  0  0  0  0
   -1.0199    1.0208   -0.0433 N   0  0  0  0  0  0  0  0  0  0  0  0
    0.6819    2.6149   -0.0670 O   0  0  0  0  0  0  0  0  0  0  0  0
    0.9875   -1.0516    0.0437 C   0  0  0  0  0  0  0  0  0  0  0  0
   -0.4047   -1.3854    0.0349 N   0  0  0  0  0  0  0  0  0  0  0  0
   -1.4038   -0.3592   -0.0082 C   0  0  0  0  0  0  0  0  0  0  0  0
   -2.6240   -0.6714   -0.0153 O   0  0  0  0  0  0  0  0  0  0  0  0
    1.8532   -1.9663    0.0818 O   0  0  0  0  0  0  0  0  0  0  0  0
   -1.7566    1.7613   -0.0746 H   0  0  0  0  0  0  0  0  0  0  0  0
   -0.6956   -2.3887    0.0603 H   0  0  0  0  0  0  0  0  0  0  0  0
  1  2  2  0
  2  3  1  0
  2  6  1  0
  3  4  1  0
  3  5  2  0
  4  8  1  0
  6 10  2  0
  6  7  1  0
  7  8  1  0
  8  9  2  0
  4 11  1  0
  7 12  1  0
M  END
$$$$
