O=C(NC=C1F)NC1=O
     RDKit          3D

 12 12  0  0  0  0  0  0  0  0999 V2000
   -1.9865    1.7403    0.0619 O   0  0  0  0  0  0  0  0  0  0  0  0
   -1.0423    0.9059    0.0323 C   0  0  0  0  0  0  0  0  0  0  0  0
   -1.3143   -0.4283    0.0163 N   0  0  0  0  0  0  0  0  0  0  0  0
   -0.3091   -1.3427   -0.0155 C   0  0  0  0  0  0  0  0  0  0  0  0
    1.0184   -0.9184   -0.0321 C   0  0  0  0  0  0  0  0  0  0  0  0
    2.0289   -1.8232   -0.0639 F   0  0  0  0  0  0  0  0  0  0  0  0
    0.2487    1.3397    0.0165 N   0  0  0  0  0  0  0  0  0  0  0  0
    1.2808    0.4527   -0.0154 C   0  0  0  0  0  0  0  0  0  0  0  0
    2.4703    0.8684   -0.0297 O   0  0  0  0  0  0  0  0  0  0  0  0
   -2.3054   -0.7596    0.0285 H   0  0  0  0  0  0  0  0  0  0  0  0
   -0.5390   -2.4007   -0.0279 H   0  0  0  0  0  0  0  0  0  0  0  0
    0.4494    2.3660    0.0290 H   0  0  0  0  0  0  0  0  0  0  0  0
  1  2  2  0
  2  3  1  0
  2  7  1  0
  3  4  1  0
  4  5  2  0
  5  8  1  0
  5  6  1  0
  7  8  1  0
  8  9  2  0
  3 10  1  0
  4 11  1  0
  7 12  1  0
M  END
$$$$
