
     RDKit          3D

 43 46  0  0  1  0  0  0  0  0999 V2000
    1.3261   -0.0486    1.2573 O   0  0  0  0  0  0  0  0  0  0  0  0
    1.1742    0.1337    0.0174 C   0  0  0  0  0  0  0  0  0  0  0  0
    2.3099    0.6689   -0.8125 C   0  0  1  0  0  0  0  0  0  0  0  0
    2.3994    2.2002   -0.6629 C   0  0  0  0  0  0  0  0  0  0  0  0
    2.5251    2.5698    0.6843 O   0  0  0  0  0  0  0  0  0  0  0  0
    3.5959   -0.1007   -0.5280 C   0  0  0  0  0  0  0  0  0  0  0  0
    4.7411    0.4885    0.0522 C   0  0  0  0  0  0  0  0  0  0  0  0
    5.8897   -0.2742    0.2868 C   0  0  0  0  0  0  0  0  0  0  0  0
    5.9168   -1.6275   -0.0532 C   0  0  0  0  0  0  0  0  0  0  0  0
    4.7952   -2.2232   -0.6311 C   0  0  0  0  0  0  0  0  0  0  0  0
    3.6441   -1.4670   -0.8684 C   0  0  0  0  0  0  0  0  0  0  0  0
   -0.0571   -0.1242   -0.5956 O   0  0  0  0  0  0  0  0  0  0  0  0
   -1.2163   -0.5589    0.1163 C   0  0  2  0  0  0  0  0  0  0  0  0
   -2.2539   -1.1406   -0.9011 C   0  0  0  0  0  0  0  0  0  0  0  0
   -3.7240   -0.8950   -0.4812 C   0  0  2  0  0  0  0  0  0  0  0  0
   -4.1552    0.4680   -1.0394 C   0  0  1  0  0  0  0  0  0  0  0  0
   -5.1963    1.1070   -0.3381 O   0  0  0  0  0  0  0  0  0  0  0  0
   -3.8761    1.4277    0.0340 C   0  0  1  0  0  0  0  0  0  0  0  0
   -3.2936    0.5901    1.1803 C   0  0  2  0  0  0  0  0  0  0  0  0
   -1.7521    0.5912    1.0387 C   0  0  0  0  0  0  0  0  0  0  0  0
   -3.7344   -0.7931    0.9806 N   0  0  0  0  0  0  0  0  0  0  0  0
   -5.0286   -1.1170    1.6054 C   0  0  0  0  0  0  0  0  0  0  0  0
    2.0621    0.4825   -1.8815 H   0  0  0  0  0  0  0  0  0  0  0  0
    1.4741    2.6571   -1.0817 H   0  0  0  0  0  0  0  0  0  0  0  0
    3.2619    2.5866   -1.2513 H   0  0  0  0  0  0  0  0  0  0  0  0
    2.5901    3.5599    0.6932 H   0  0  0  0  0  0  0  0  0  0  0  0
    4.7660    1.5320    0.3277 H   0  0  0  0  0  0  0  0  0  0  0  0
    6.7618    0.1865    0.7329 H   0  0  0  0  0  0  0  0  0  0  0  0
    6.8078   -2.2142    0.1299 H   0  0  0  0  0  0  0  0  0  0  0  0
    4.8170   -3.2724   -0.8962 H   0  0  0  0  0  0  0  0  0  0  0  0
    2.7843   -1.9478   -1.3191 H   0  0  0  0  0  0  0  0  0  0  0  0
   -0.9257   -1.4046    0.7811 H   0  0  0  0  0  0  0  0  0  0  0  0
   -2.0889   -2.2375   -0.9805 H   0  0  0  0  0  0  0  0  0  0  0  0
   -2.0676   -0.7290   -1.9183 H   0  0  0  0  0  0  0  0  0  0  0  0
   -4.3855   -1.7067   -0.8578 H   0  0  0  0  0  0  0  0  0  0  0  0
   -3.9772    0.8269   -2.0755 H   0  0  0  0  0  0  0  0  0  0  0  0
   -3.5120    2.4274   -0.2849 H   0  0  0  0  0  0  0  0  0  0  0  0
   -3.6020    0.9987    2.1683 H   0  0  0  0  0  0  0  0  0  0  0  0
   -1.3084    0.4634    2.0502 H   0  0  0  0  0  0  0  0  0  0  0  0
   -1.3964    1.5786    0.6681 H   0  0  0  0  0  0  0  0  0  0  0  0
   -5.8602   -0.4795    1.2498 H   0  0  0  0  0  0  0  0  0  0  0  0
   -5.2849   -2.1774    1.3981 H   0  0  0  0  0  0  0  0  0  0  0  0
   -4.9463   -1.0056    2.7072 H   0  0  0  0  0  0  0  0  0  0  0  0
  1  2  2  0
  2  3  1  0
  2 12  1  0
  3  6  1  0
  3  4  1  0
  4  5  1  0
  6 11  1  0
  6  7  2  0
  7  8  1  0
  8  9  2  0
  9 10  1  0
 10 11  2  0
 12 13  1  0
 13 14  1  0
 13 20  1  0
 14 15  1  0
 15 16  1  0
 15 21  1  0
 16 18  1  0
 16 17  1  0
 17 18  1  0
 18 19  1  0
 19 20  1  0
 19 21  1  0
 21 22  1  0
  3 23  1  6
  4 24  1  0
  4 25  1  0
  5 26  1  0
  7 27  1  0
  8 28  1  0
  9 29  1  0
 10 30  1  0
 11 31  1  0
 13 32  1  1
 14 33  1  0
 14 34  1  0
 15 35  1  1
 16 36  1  6
 18 37  1  6
 19 38  1  1
 20 39  1  0
 20 40  1  0
 22 41  1  0
 22 42  1  0
 22 43  1  0
M  END
$$$$
