CC(Nc1ccc(OC)cc1)=O
     RDKit          3D

 23 23  0  0  0  0  0  0  0  0999 V2000
    4.4564   -0.2496   -0.2132 C   0  0  0  0  0  0  0  0  0  0  0  0
    2.9958   -0.2668   -0.5275 C   0  0  0  0  0  0  0  0  0  0  0  0
    2.0938    0.5485    0.2364 N   0  0  0  0  0  0  0  0  0  0  0  0
    0.6607    0.4697    0.1471 C   0  0  0  0  0  0  0  0  0  0  0  0
   -0.1043    1.6301    0.3326 C   0  0  0  0  0  0  0  0  0  0  0  0
   -1.4996    1.5768    0.2725 C   0  0  0  0  0  0  0  0  0  0  0  0
   -2.1558    0.3626    0.0430 C   0  0  0  0  0  0  0  0  0  0  0  0
   -3.5576    0.3616   -0.0101 O   0  0  0  0  0  0  0  0  0  0  0  0
   -4.3525   -0.7982   -0.2351 C   0  0  0  0  0  0  0  0  0  0  0  0
   -1.3926   -0.8089   -0.1205 C   0  0  0  0  0  0  0  0  0  0  0  0
    0.0035   -0.7556   -0.0617 C   0  0  0  0  0  0  0  0  0  0  0  0
    2.5755   -0.9702   -1.4855 O   0  0  0  0  0  0  0  0  0  0  0  0
    4.8494    0.7820   -0.3278 H   0  0  0  0  0  0  0  0  0  0  0  0
    4.6143   -0.5870    0.8323 H   0  0  0  0  0  0  0  0  0  0  0  0
    5.0129   -0.9250   -0.8975 H   0  0  0  0  0  0  0  0  0  0  0  0
    2.5082    1.3026    0.8301 H   0  0  0  0  0  0  0  0  0  0  0  0
    0.3832    2.5799    0.5136 H   0  0  0  0  0  0  0  0  0  0  0  0
   -2.0748    2.4842    0.4072 H   0  0  0  0  0  0  0  0  0  0  0  0
   -4.1807   -1.5412    0.5721 H   0  0  0  0  0  0  0  0  0  0  0  0
   -5.4236   -0.5100   -0.2304 H   0  0  0  0  0  0  0  0  0  0  0  0
   -4.1080   -1.2430   -1.2228 H   0  0  0  0  0  0  0  0  0  0  0  0
   -1.8681   -1.7663   -0.2843 H   0  0  0  0  0  0  0  0  0  0  0  0
    0.5639   -1.6762   -0.1531 H   0  0  0  0  0  0  0  0  0  0  0  0
  1  2  1  0
  2  3  1  0
  2 12  2  0
  3  4  1  0
  4 11  2  0
  4  5  1  0
  5  6  2  0
  6  7  1  0
  7 10  2  0
  7  8  1  0
  8  9  1  0
 10 11  1  0
  1 13  1  0
  1 14  1  0
  1 15  1  0
  3 16  1  0
  5 17  1  0
  6 18  1  0
  9 19  1  0
  9 20  1  0
  9 21  1  0
 10 22  1  0
 11 23  1  0
M  END
$$$$
