NC(OCC)=O
     RDKit          3D

 13 12  0  0  0  0  0  0  0  0999 V2000
    2.4059    0.7294    0.7041 N   0  0  0  0  0  0  0  0  0  0  0  0
    1.3115   -0.0286    0.1963 C   0  0  0  0  0  0  0  0  0  0  0  0
    0.0495    0.1033    0.7859 O   0  0  0  0  0  0  0  0  0  0  0  0
   -1.1111   -0.5820    0.3189 C   0  0  0  0  0  0  0  0  0  0  0  0
   -1.6454    0.0676   -0.9525 C   0  0  0  0  0  0  0  0  0  0  0  0
    1.4927   -0.8144   -0.7730 O   0  0  0  0  0  0  0  0  0  0  0  0
    3.3550    0.6412    0.2777 H   0  0  0  0  0  0  0  0  0  0  0  0
    2.2651    1.3805    1.5078 H   0  0  0  0  0  0  0  0  0  0  0  0
   -0.8817   -1.6546    0.1377 H   0  0  0  0  0  0  0  0  0  0  0  0
   -1.8945   -0.5255    1.1039 H   0  0  0  0  0  0  0  0  0  0  0  0
   -1.8674    1.1395   -0.7657 H   0  0  0  0  0  0  0  0  0  0  0  0
   -2.5790   -0.4435   -1.2686 H   0  0  0  0  0  0  0  0  0  0  0  0
   -0.9006   -0.0129   -1.7714 H   0  0  0  0  0  0  0  0  0  0  0  0
  1  2  1  0
  2  6  2  0
  2  3  1  0
  3  4  1  0
  4  5  1  0
  1  7  1  0
  1  8  1  0
  4  9  1  0
  4 10  1  0
  5 11  1  0
  5 12  1  0
  5 13  1  0
M  END
$$$$
