O=C(N(c1c(C)cccc1CC)C(C)COC)CCl
     RDKit          3D

 41 41  0  0  1  0  0  0  0  0999 V2000
    1.8498    2.4790   -0.8635 O   0  0  0  0  0  0  0  0  0  0  0  0
    0.6721    2.1048   -0.6110 C   0  0  0  0  0  0  0  0  0  0  0  0
    0.4456    0.8484    0.0766 N   0  0  0  0  0  0  0  0  0  0  0  0
   -0.8842    0.5392    0.5518 C   0  0  0  0  0  0  0  0  0  0  0  0
   -1.3317    1.0747    1.7873 C   0  0  0  0  0  0  0  0  0  0  0  0
   -0.4775    1.9951    2.6197 C   0  0  0  0  0  0  0  0  0  0  0  0
   -2.6349    0.8069    2.2287 C   0  0  0  0  0  0  0  0  0  0  0  0
   -3.4940    0.0217    1.4656 C   0  0  0  0  0  0  0  0  0  0  0  0
   -3.0703   -0.4952    0.2440 C   0  0  0  0  0  0  0  0  0  0  0  0
   -1.7710   -0.2475   -0.2296 C   0  0  0  0  0  0  0  0  0  0  0  0
   -1.3846   -0.8056   -1.5805 C   0  0  0  0  0  0  0  0  0  0  0  0
   -1.2713   -2.3288   -1.5454 C   0  0  0  0  0  0  0  0  0  0  0  0
    1.6122    0.0010    0.4362 C   0  0  1  0  0  0  0  0  0  0  0  0
    1.3037   -1.0221    1.5469 C   0  0  0  0  0  0  0  0  0  0  0  0
    2.1749   -0.7125   -0.8065 C   0  0  0  0  0  0  0  0  0  0  0  0
    3.4573   -1.2290   -0.5138 O   0  0  0  0  0  0  0  0  0  0  0  0
    3.9374   -1.9524   -1.6248 C   0  0  0  0  0  0  0  0  0  0  0  0
   -0.4584    2.9809   -1.0747 C   0  0  0  0  0  0  0  0  0  0  0  0
   -0.9719    2.4947   -2.7071 Cl  0  0  0  0  0  0  0  0  0  0  0  0
    0.5906    1.9735    2.3222 H   0  0  0  0  0  0  0  0  0  0  0  0
   -0.5332    1.6990    3.6895 H   0  0  0  0  0  0  0  0  0  0  0  0
   -0.8494    3.0362    2.5139 H   0  0  0  0  0  0  0  0  0  0  0  0
   -2.9906    1.2199    3.1652 H   0  0  0  0  0  0  0  0  0  0  0  0
   -4.5000   -0.1737    1.8148 H   0  0  0  0  0  0  0  0  0  0  0  0
   -3.7645   -1.0841   -0.3429 H   0  0  0  0  0  0  0  0  0  0  0  0
   -2.1583   -0.5209   -2.3265 H   0  0  0  0  0  0  0  0  0  0  0  0
   -0.4303   -0.3773   -1.9439 H   0  0  0  0  0  0  0  0  0  0  0  0
   -0.8844   -2.6955   -2.5198 H   0  0  0  0  0  0  0  0  0  0  0  0
   -2.2663   -2.7883   -1.3685 H   0  0  0  0  0  0  0  0  0  0  0  0
   -0.5790   -2.6546   -0.7420 H   0  0  0  0  0  0  0  0  0  0  0  0
    2.4112    0.6627    0.8396 H   0  0  0  0  0  0  0  0  0  0  0  0
    0.9688   -0.5052    2.4689 H   0  0  0  0  0  0  0  0  0  0  0  0
    2.2183   -1.5991    1.8028 H   0  0  0  0  0  0  0  0  0  0  0  0
    0.5176   -1.7360    1.2251 H   0  0  0  0  0  0  0  0  0  0  0  0
    2.2444    0.0138   -1.6467 H   0  0  0  0  0  0  0  0  0  0  0  0
    1.4814   -1.5290   -1.1016 H   0  0  0  0  0  0  0  0  0  0  0  0
    3.3000   -2.8416   -1.8283 H   0  0  0  0  0  0  0  0  0  0  0  0
    4.9594   -2.3177   -1.3942 H   0  0  0  0  0  0  0  0  0  0  0  0
    4.0066   -1.3081   -2.5302 H   0  0  0  0  0  0  0  0  0  0  0  0
   -1.3246    2.9348   -0.3845 H   0  0  0  0  0  0  0  0  0  0  0  0
   -0.1210    4.0381   -1.1129 H   0  0  0  0  0  0  0  0  0  0  0  0
  1  2  2  0
  2 18  1  0
  2  3  1  0
  3 13  1  0
  3  4  1  0
  4  5  2  0
  4 10  1  0
  5  6  1  0
  5  7  1  0
  7  8  2  0
  8  9  1  0
  9 10  2  0
 10 11  1  0
 11 12  1  0
 13 14  1  0
 13 15  1  0
 15 16  1  0
 16 17  1  0
 18 19  1  0
  6 20  1  0
  6 21  1  0
  6 22  1  0
  7 23  1  0
  8 24  1  0
  9 25  1  0
 11 26  1  0
 11 27  1  0
 12 28  1  0
 12 29  1  0
 12 30  1  0
 13 31  1  1
 14 32  1  0
 14 33  1  0
 14 34  1  0
 15 35  1  0
 15 36  1  0
 17 37  1  0
 17 38  1  0
 17 39  1  0
 18 40  1  0
 18 41  1  0
M  END
$$$$
