Oc1cc(ccc3c2CCC4(C)C3CCC4=O)c2cc1
     RDKit          3D

 38 41  0  0  1  0  0  0  0  0999 V2000
    6.1108    0.1699   -0.5110 O   0  0  0  0  0  0  0  0  0  0  0  0
    4.7211    0.0717   -0.5213 C   0  0  0  0  0  0  0  0  0  0  0  0
    4.0140   -0.1643    0.6621 C   0  0  0  0  0  0  0  0  0  0  0  0
    2.6133   -0.2619    0.6459 C   0  0  0  0  0  0  0  0  0  0  0  0
    1.9215   -0.5022    1.8384 C   0  0  0  0  0  0  0  0  0  0  0  0
    0.5346   -0.6058    1.8408 C   0  0  0  0  0  0  0  0  0  0  0  0
   -0.1901   -0.4461    0.6535 C   0  0  0  0  0  0  0  0  0  0  0  0
    0.4828   -0.2193   -0.5789 C   0  0  0  0  0  0  0  0  0  0  0  0
   -0.3150   -0.0161   -1.8828 C   0  0  0  0  0  0  0  0  0  0  0  0
   -1.8663   -0.0777   -1.7706 C   0  0  0  0  0  0  0  0  0  0  0  0
   -2.3379    0.3151   -0.3617 C   0  0  2  0  0  0  0  0  0  0  0  0
   -2.0419    1.8115   -0.0703 C   0  0  0  0  0  0  0  0  0  0  0  0
   -1.6758   -0.6607    0.6109 C   0  0  2  0  0  0  0  0  0  0  0  0
   -2.5298   -0.6063    1.8811 C   0  0  0  0  0  0  0  0  0  0  0  0
   -3.9635   -0.4754    1.3391 C   0  0  0  0  0  0  0  0  0  0  0  0
   -3.7740    0.0638   -0.0454 C   0  0  0  0  0  0  0  0  0  0  0  0
   -4.6967    0.3192   -0.8037 O   0  0  0  0  0  0  0  0  0  0  0  0
    1.9020   -0.1210   -0.5763 C   0  0  0  0  0  0  0  0  0  0  0  0
    2.6380    0.1155   -1.7587 C   0  0  0  0  0  0  0  0  0  0  0  0
    4.0310    0.2102   -1.7255 C   0  0  0  0  0  0  0  0  0  0  0  0
    6.6426    0.0741    0.3463 H   0  0  0  0  0  0  0  0  0  0  0  0
    4.5592   -0.2716    1.5928 H   0  0  0  0  0  0  0  0  0  0  0  0
    2.4573   -0.6217    2.7728 H   0  0  0  0  0  0  0  0  0  0  0  0
    0.0302   -0.8192    2.7740 H   0  0  0  0  0  0  0  0  0  0  0  0
   -0.0518    0.9846   -2.2893 H   0  0  0  0  0  0  0  0  0  0  0  0
    0.0078   -0.7754   -2.6272 H   0  0  0  0  0  0  0  0  0  0  0  0
   -2.3249    0.5935   -2.5296 H   0  0  0  0  0  0  0  0  0  0  0  0
   -2.2075   -1.1103   -2.0079 H   0  0  0  0  0  0  0  0  0  0  0  0
   -2.3613    2.0965    0.9546 H   0  0  0  0  0  0  0  0  0  0  0  0
   -0.9639    2.0534   -0.1645 H   0  0  0  0  0  0  0  0  0  0  0  0
   -2.5959    2.4524   -0.7893 H   0  0  0  0  0  0  0  0  0  0  0  0
   -1.8014   -1.7034    0.2276 H   0  0  0  0  0  0  0  0  0  0  0  0
   -2.2648    0.2816    2.4957 H   0  0  0  0  0  0  0  0  0  0  0  0
   -2.4138   -1.5287    2.4908 H   0  0  0  0  0  0  0  0  0  0  0  0
   -4.4564   -1.4700    1.2891 H   0  0  0  0  0  0  0  0  0  0  0  0
   -4.5637    0.2243    1.9590 H   0  0  0  0  0  0  0  0  0  0  0  0
    2.1529    0.2279   -2.7181 H   0  0  0  0  0  0  0  0  0  0  0  0
    4.5775    0.3919   -2.6425 H   0  0  0  0  0  0  0  0  0  0  0  0
  1  2  1  0
  2 20  2  0
  2  3  1  0
  3  4  2  0
  4  5  1  0
  4 18  1  0
  5  6  2  0
  6  7  1  0
  7 13  1  0
  7  8  2  0
  8  9  1  0
  8 18  1  0
  9 10  1  0
 10 11  1  0
 11 12  1  1
 11 13  1  0
 11 16  1  0
 13 14  1  0
 14 15  1  0
 15 16  1  0
 16 17  2  0
 18 19  2  0
 19 20  1  0
  1 21  1  0
  3 22  1  0
  5 23  1  0
  6 24  1  0
  9 25  1  0
  9 26  1  0
 10 27  1  0
 10 28  1  0
 12 29  1  0
 12 30  1  0
 12 31  1  0
 13 32  1  6
 14 33  1  0
 14 34  1  0
 15 35  1  0
 15 36  1  0
 19 37  1  0
 20 38  1  0
M  END
$$$$
