O=C1CCC2(C)C(CC(SC(C)=O)C3C2CCC4(C)C3CCC45OC(CC5)=O)=C1
     RDKit          3D

 61 65  0  0  1  0  0  0  0  0999 V2000
   -5.7425   -2.0339   -1.8271 O   0  0  0  0  0  0  0  0  0  0  0  0
   -4.6319   -1.9076   -1.2467 C   0  0  0  0  0  0  0  0  0  0  0  0
   -3.7020   -3.0792   -1.1692 C   0  0  0  0  0  0  0  0  0  0  0  0
   -2.2620   -2.6307   -0.8833 C   0  0  0  0  0  0  0  0  0  0  0  0
   -2.1583   -1.6119    0.2971 C   0  0  2  0  0  0  0  0  0  0  0  0
   -2.5625   -2.3081    1.6192 C   0  0  0  0  0  0  0  0  0  0  0  0
   -3.1347   -0.4517    0.0525 C   0  0  0  0  0  0  0  0  0  0  0  0
   -2.7678    0.9204    0.5687 C   0  0  0  0  0  0  0  0  0  0  0  0
   -1.4029    1.4175    0.0181 C   0  0  1  0  0  0  0  0  0  0  0  0
   -0.6462    2.5064    1.2880 S   0  0  0  0  0  0  0  0  0  0  0  0
   -1.6359    3.9537    0.8919 C   0  0  0  0  0  0  0  0  0  0  0  0
   -2.8995    4.2399    1.6387 C   0  0  0  0  0  0  0  0  0  0  0  0
   -1.2611    4.7176    0.0170 O   0  0  0  0  0  0  0  0  0  0  0  0
   -0.5004    0.2248   -0.4518 C   0  0  2  0  0  0  0  0  0  0  0  0
   -0.6890   -1.0357    0.4459 C   0  0  2  0  0  0  0  0  0  0  0  0
    0.4388   -2.0829    0.1980 C   0  0  0  0  0  0  0  0  0  0  0  0
    1.8676   -1.5530    0.4926 C   0  0  0  0  0  0  0  0  0  0  0  0
    2.0534   -0.0253    0.2112 C   0  0  2  0  0  0  0  0  0  0  0  0
    1.9972    0.7499    1.5620 C   0  0  0  0  0  0  0  0  0  0  0  0
    1.0011    0.4636   -0.8077 C   0  0  2  0  0  0  0  0  0  0  0  0
    1.4953    1.8111   -1.3306 C   0  0  0  0  0  0  0  0  0  0  0  0
    3.0284    1.7394   -1.1872 C   0  0  0  0  0  0  0  0  0  0  0  0
    3.3560    0.3581   -0.5603 C   0  0  2  0  0  0  0  0  0  0  0  0
    3.6089   -0.5527   -1.6261 O   0  0  0  0  0  0  0  0  0  0  0  0
    4.9362   -0.9132   -1.6783 C   0  0  0  0  0  0  0  0  0  0  0  0
    5.7484   -0.2561   -0.6390 C   0  0  0  0  0  0  0  0  0  0  0  0
    4.6755    0.3504    0.2702 C   0  0  0  0  0  0  0  0  0  0  0  0
    5.3986   -1.6959   -2.5484 O   0  0  0  0  0  0  0  0  0  0  0  0
   -4.2810   -0.6210   -0.6288 C   0  0  0  0  0  0  0  0  0  0  0  0
   -3.7228   -3.6313   -2.1337 H   0  0  0  0  0  0  0  0  0  0  0  0
   -4.0542   -3.7741   -0.3782 H   0  0  0  0  0  0  0  0  0  0  0  0
   -1.8537   -2.1728   -1.8104 H   0  0  0  0  0  0  0  0  0  0  0  0
   -1.6636   -3.5421   -0.6688 H   0  0  0  0  0  0  0  0  0  0  0  0
   -3.6239   -2.6324    1.5987 H   0  0  0  0  0  0  0  0  0  0  0  0
   -2.4533   -1.6157    2.4814 H   0  0  0  0  0  0  0  0  0  0  0  0
   -1.9283   -3.2001    1.8059 H   0  0  0  0  0  0  0  0  0  0  0  0
   -3.5517    1.6716    0.3282 H   0  0  0  0  0  0  0  0  0  0  0  0
   -2.7296    0.8455    1.6770 H   0  0  0  0  0  0  0  0  0  0  0  0
   -1.5985    2.0363   -0.8867 H   0  0  0  0  0  0  0  0  0  0  0  0
   -2.8203    5.2264    2.1413 H   0  0  0  0  0  0  0  0  0  0  0  0
   -3.7549    4.2566    0.9316 H   0  0  0  0  0  0  0  0  0  0  0  0
   -3.0827    3.4601    2.4071 H   0  0  0  0  0  0  0  0  0  0  0  0
   -0.9523   -0.0466   -1.4355 H   0  0  0  0  0  0  0  0  0  0  0  0
   -0.5754   -0.7032    1.4973 H   0  0  0  0  0  0  0  0  0  0  0  0
    0.2618   -2.9849    0.8217 H   0  0  0  0  0  0  0  0  0  0  0  0
    0.4147   -2.4044   -0.8656 H   0  0  0  0  0  0  0  0  0  0  0  0
    2.1149   -1.7829    1.5525 H   0  0  0  0  0  0  0  0  0  0  0  0
    2.5818   -2.1583   -0.1037 H   0  0  0  0  0  0  0  0  0  0  0  0
    1.0641    0.5542    2.1154 H   0  0  0  0  0  0  0  0  0  0  0  0
    2.1109    1.8436    1.4193 H   0  0  0  0  0  0  0  0  0  0  0  0
    2.8051    0.4260    2.2475 H   0  0  0  0  0  0  0  0  0  0  0  0
    1.1430   -0.2064   -1.6943 H   0  0  0  0  0  0  0  0  0  0  0  0
    1.1052    2.6620   -0.7422 H   0  0  0  0  0  0  0  0  0  0  0  0
    1.2001    1.9540   -2.3933 H   0  0  0  0  0  0  0  0  0  0  0  0
    3.3723    2.5690   -0.5316 H   0  0  0  0  0  0  0  0  0  0  0  0
    3.5229    1.8582   -2.1764 H   0  0  0  0  0  0  0  0  0  0  0  0
    6.3715    0.5406   -1.0983 H   0  0  0  0  0  0  0  0  0  0  0  0
    6.3815   -0.9915   -0.0974 H   0  0  0  0  0  0  0  0  0  0  0  0
    4.5754   -0.3233    1.1475 H   0  0  0  0  0  0  0  0  0  0  0  0
    4.9716    1.3598    0.6276 H   0  0  0  0  0  0  0  0  0  0  0  0
   -4.9589    0.2125   -0.7708 H   0  0  0  0  0  0  0  0  0  0  0  0
  1  2  2  0
  2  3  1  0
  2 29  1  0
  3  4  1  0
  4  5  1  0
  5  6  1  1
  5 15  1  0
  5  7  1  0
  7  8  1  0
  7 29  2  0
  8  9  1  0
  9 14  1  0
  9 10  1  0
 10 11  1  0
 11 12  1  0
 11 13  2  0
 14 15  1  0
 14 20  1  0
 15 16  1  0
 16 17  1  0
 17 18  1  0
 18 19  1  1
 18 20  1  0
 18 23  1  0
 20 21  1  0
 21 22  1  0
 23 22  1  6
 23 27  1  0
 23 24  1  0
 24 25  1  0
 25 26  1  0
 25 28  2  0
 26 27  1  0
  3 30  1  0
  3 31  1  0
  4 32  1  0
  4 33  1  0
  6 34  1  0
  6 35  1  0
  6 36  1  0
  8 37  1  0
  8 38  1  0
  9 39  1  6
 12 40  1  0
 12 41  1  0
 12 42  1  0
 14 43  1  6
 15 44  1  1
 16 45  1  0
 16 46  1  0
 17 47  1  0
 17 48  1  0
 19 49  1  0
 19 50  1  0
 19 51  1  0
 20 52  1  6
 21 53  1  0
 21 54  1  0
 22 55  1  0
 22 56  1  0
 26 57  1  0
 26 58  1  0
 27 59  1  0
 27 60  1  0
 29 61  1  0
M  END
$$$$
