O=C(N1)NC(C(C2=CCCCC2)(CC)C1=O)=O
     RDKit          3D

 33 34  0  0  0  0  0  0  0  0999 V2000
   -1.8902    3.9316   -0.1157 O   0  0  0  0  0  0  0  0  0  0  0  0
   -1.7312    2.6827   -0.0832 C   0  0  0  0  0  0  0  0  0  0  0  0
   -1.6981    1.9352   -1.2949 N   0  0  0  0  0  0  0  0  0  0  0  0
   -1.6158    2.0099    1.1664 N   0  0  0  0  0  0  0  0  0  0  0  0
   -1.4154    0.5949    1.2206 C   0  0  0  0  0  0  0  0  0  0  0  0
   -0.9793   -0.1918   -0.0152 C   0  0  0  0  0  0  0  0  0  0  0  0
    0.5651   -0.2973    0.0059 C   0  0  0  0  0  0  0  0  0  0  0  0
    1.1812   -0.9011    1.0578 C   0  0  0  0  0  0  0  0  0  0  0  0
    2.6762   -1.0478    1.1820 C   0  0  0  0  0  0  0  0  0  0  0  0
    3.4260    0.0199    0.3904 C   0  0  0  0  0  0  0  0  0  0  0  0
    2.8917    0.0610   -1.0356 C   0  0  0  0  0  0  0  0  0  0  0  0
    1.4055    0.4368   -1.0427 C   0  0  0  0  0  0  0  0  0  0  0  0
   -1.6042   -1.6266    0.0074 C   0  0  0  0  0  0  0  0  0  0  0  0
   -3.1390   -1.6433   -0.0249 C   0  0  0  0  0  0  0  0  0  0  0  0
   -1.4465    0.5268   -1.2847 C   0  0  0  0  0  0  0  0  0  0  0  0
   -1.5336   -0.1099   -2.3709 O   0  0  0  0  0  0  0  0  0  0  0  0
   -1.5314    0.0111    2.3329 O   0  0  0  0  0  0  0  0  0  0  0  0
   -1.8788    2.4199   -2.2029 H   0  0  0  0  0  0  0  0  0  0  0  0
   -1.7419    2.5476    2.0535 H   0  0  0  0  0  0  0  0  0  0  0  0
    0.5954   -1.3691    1.8405 H   0  0  0  0  0  0  0  0  0  0  0  0
    2.9653   -2.0561    0.8149 H   0  0  0  0  0  0  0  0  0  0  0  0
    2.9632   -0.9770    2.2528 H   0  0  0  0  0  0  0  0  0  0  0  0
    4.5105   -0.2221    0.3765 H   0  0  0  0  0  0  0  0  0  0  0  0
    3.2955    1.0135    0.8738 H   0  0  0  0  0  0  0  0  0  0  0  0
    3.0292   -0.9334   -1.5157 H   0  0  0  0  0  0  0  0  0  0  0  0
    3.4648    0.8082   -1.6260 H   0  0  0  0  0  0  0  0  0  0  0  0
    1.3097    1.5295   -0.8622 H   0  0  0  0  0  0  0  0  0  0  0  0
    1.0229    0.2216   -2.0616 H   0  0  0  0  0  0  0  0  0  0  0  0
   -1.2270   -2.2118   -0.8602 H   0  0  0  0  0  0  0  0  0  0  0  0
   -1.2897   -2.1810    0.9162 H   0  0  0  0  0  0  0  0  0  0  0  0
   -3.5256   -1.1924   -0.9618 H   0  0  0  0  0  0  0  0  0  0  0  0
   -3.5592   -1.0953    0.8437 H   0  0  0  0  0  0  0  0  0  0  0  0
   -3.4955   -2.6938    0.0227 H   0  0  0  0  0  0  0  0  0  0  0  0
  1  2  2  0
  2  3  1  0
  2  4  1  0
  3 15  1  0
  4  5  1  0
  5  6  1  0
  5 17  2  0
  6 13  1  0
  6  7  1  0
  6 15  1  0
  7 12  1  0
  7  8  2  0
  8  9  1  0
  9 10  1  0
 10 11  1  0
 11 12  1  0
 13 14  1  0
 15 16  2  0
  3 18  1  0
  4 19  1  0
  8 20  1  0
  9 21  1  0
  9 22  1  0
 10 23  1  0
 10 24  1  0
 11 25  1  0
 11 26  1  0
 12 27  1  0
 12 28  1  0
 13 29  1  0
 13 30  1  0
 14 31  1  0
 14 32  1  0
 14 33  1  0
M  END
$$$$
