NC(C(O)=O)C(C)(S)C
     RDKit          3D

 20 19  0  0  1  0  0  0  0  0999 V2000
    1.5560    1.2280   -0.4979 N   0  0  0  0  0  0  0  0  0  0  0  0
    0.8821   -0.0556   -0.2714 C   0  0  1  0  0  0  0  0  0  0  0  0
    1.7667   -0.8989    0.6231 C   0  0  0  0  0  0  0  0  0  0  0  0
    2.9984   -1.3426    0.1499 O   0  0  0  0  0  0  0  0  0  0  0  0
    1.4287   -1.1936    1.7997 O   0  0  0  0  0  0  0  0  0  0  0  0
   -0.6082    0.1126    0.2101 C   0  0  0  0  0  0  0  0  0  0  0  0
   -1.3025   -1.2647    0.2849 C   0  0  0  0  0  0  0  0  0  0  0  0
   -0.6951    0.9148    1.8625 S   0  0  0  0  0  0  0  0  0  0  0  0
   -1.3953    0.9879   -0.7876 C   0  0  0  0  0  0  0  0  0  0  0  0
    1.3882    1.8765    0.3039 H   0  0  0  0  0  0  0  0  0  0  0  0
    1.1860    1.6731   -1.3683 H   0  0  0  0  0  0  0  0  0  0  0  0
    0.8471   -0.5914   -1.2473 H   0  0  0  0  0  0  0  0  0  0  0  0
    3.3114   -1.1198   -0.7875 H   0  0  0  0  0  0  0  0  0  0  0  0
   -0.8387   -1.9148    1.0535 H   0  0  0  0  0  0  0  0  0  0  0  0
   -2.3752   -1.1520    0.5521 H   0  0  0  0  0  0  0  0  0  0  0  0
   -1.2445   -1.7849   -0.6954 H   0  0  0  0  0  0  0  0  0  0  0  0
   -2.1013    0.8860    1.9350 H   0  0  0  0  0  0  0  0  0  0  0  0
   -1.2972    0.5906   -1.8208 H   0  0  0  0  0  0  0  0  0  0  0  0
   -1.0313    2.0366   -0.7712 H   0  0  0  0  0  0  0  0  0  0  0  0
   -2.4754    1.0122   -0.5271 H   0  0  0  0  0  0  0  0  0  0  0  0
  1  2  1  0
  2  3  1  0
  2  6  1  0
  3  4  1  0
  3  5  2  0
  6  7  1  0
  6  9  1  0
  6  8  1  0
  1 10  1  0
  1 11  1  0
  2 12  1  6
  4 13  1  0
  7 14  1  0
  7 15  1  0
  7 16  1  0
  8 17  1  0
  9 18  1  0
  9 19  1  0
  9 20  1  0
M  END
$$$$
