CCCCc(c(O)nc(N(C)C)n1)c1C
     RDKit          3D

 34 34  0  0  0  0  0  0  0  0999 V2000
    4.4841    0.2667   -1.6954 C   0  0  0  0  0  0  0  0  0  0  0  0
    4.1160   -0.3176   -0.3317 C   0  0  0  0  0  0  0  0  0  0  0  0
    2.6774    0.0179    0.0896 C   0  0  0  0  0  0  0  0  0  0  0  0
    1.6274   -0.7352   -0.7418 C   0  0  0  0  0  0  0  0  0  0  0  0
    0.2322   -0.4877   -0.1992 C   0  0  0  0  0  0  0  0  0  0  0  0
   -0.2591   -1.2117    0.9140 C   0  0  0  0  0  0  0  0  0  0  0  0
    0.5059   -2.1704    1.5822 O   0  0  0  0  0  0  0  0  0  0  0  0
   -1.5177   -0.9796    1.3651 N   0  0  0  0  0  0  0  0  0  0  0  0
   -2.3312   -0.0610    0.7844 C   0  0  0  0  0  0  0  0  0  0  0  0
   -3.6627    0.1554    1.2903 N   0  0  0  0  0  0  0  0  0  0  0  0
   -4.1410   -0.6235    2.4366 C   0  0  0  0  0  0  0  0  0  0  0  0
   -4.5291    1.1526    0.6544 C   0  0  0  0  0  0  0  0  0  0  0  0
   -1.8756    0.6553   -0.2748 N   0  0  0  0  0  0  0  0  0  0  0  0
   -0.6264    0.4787   -0.7785 C   0  0  0  0  0  0  0  0  0  0  0  0
   -0.2144    1.3262   -1.9478 C   0  0  0  0  0  0  0  0  0  0  0  0
    5.5648    0.0997   -1.8882 H   0  0  0  0  0  0  0  0  0  0  0  0
    3.9095   -0.2294   -2.5046 H   0  0  0  0  0  0  0  0  0  0  0  0
    4.2865    1.3595   -1.7169 H   0  0  0  0  0  0  0  0  0  0  0  0
    4.2640   -1.4193   -0.3451 H   0  0  0  0  0  0  0  0  0  0  0  0
    4.8108    0.1051    0.4261 H   0  0  0  0  0  0  0  0  0  0  0  0
    2.5627   -0.2535    1.1612 H   0  0  0  0  0  0  0  0  0  0  0  0
    2.5074    1.1138    0.0074 H   0  0  0  0  0  0  0  0  0  0  0  0
    1.8426   -1.8241   -0.7586 H   0  0  0  0  0  0  0  0  0  0  0  0
    1.6991   -0.4163   -1.7999 H   0  0  0  0  0  0  0  0  0  0  0  0
    1.4618   -2.3961    1.3431 H   0  0  0  0  0  0  0  0  0  0  0  0
   -5.1808   -0.3512    2.7144 H   0  0  0  0  0  0  0  0  0  0  0  0
   -3.4873   -0.4370    3.3147 H   0  0  0  0  0  0  0  0  0  0  0  0
   -4.1205   -1.7057    2.1884 H   0  0  0  0  0  0  0  0  0  0  0  0
   -4.6869    0.8858   -0.4119 H   0  0  0  0  0  0  0  0  0  0  0  0
   -4.0533    2.1543    0.7143 H   0  0  0  0  0  0  0  0  0  0  0  0
   -5.5218    1.2103    1.1480 H   0  0  0  0  0  0  0  0  0  0  0  0
   -0.1195    0.6954   -2.8562 H   0  0  0  0  0  0  0  0  0  0  0  0
   -0.9757    2.1102   -2.1471 H   0  0  0  0  0  0  0  0  0  0  0  0
    0.7507    1.8325   -1.7364 H   0  0  0  0  0  0  0  0  0  0  0  0
  1  2  1  0
  2  3  1  0
  3  4  1  0
  4  5  1  0
  5 14  2  0
  5  6  1  0
  6  8  2  0
  6  7  1  0
  8  9  1  0
  9 10  1  0
  9 13  2  0
 10 11  1  0
 10 12  1  0
 13 14  1  0
 14 15  1  0
  1 16  1  0
  1 17  1  0
  1 18  1  0
  2 19  1  0
  2 20  1  0
  3 21  1  0
  3 22  1  0
  4 23  1  0
  4 24  1  0
  7 25  1  0
 11 26  1  0
 11 27  1  0
 11 28  1  0
 12 29  1  0
 12 30  1  0
 12 31  1  0
 15 32  1  0
 15 33  1  0
 15 34  1  0
M  END
$$$$
