O=C(C(SCCO2)=C2C)Nc1ccccc1
     RDKit          3D

 29 30  0  0  0  0  0  0  0  0999 V2000
    0.1574   -0.8475   -1.2439 O   0  0  0  0  0  0  0  0  0  0  0  0
   -0.1504    0.0347   -0.3968 C   0  0  0  0  0  0  0  0  0  0  0  0
   -1.5766    0.3257   -0.1054 C   0  0  0  0  0  0  0  0  0  0  0  0
   -1.9818    0.9200    1.5436 S   0  0  0  0  0  0  0  0  0  0  0  0
   -3.3307   -0.2721    1.7283 C   0  0  0  0  0  0  0  0  0  0  0  0
   -4.4214    0.0843    0.7215 C   0  0  0  0  0  0  0  0  0  0  0  0
   -3.9226    0.2240   -0.6157 O   0  0  0  0  0  0  0  0  0  0  0  0
   -2.5729    0.1616   -1.0067 C   0  0  0  0  0  0  0  0  0  0  0  0
   -2.3072   -0.1171   -2.4581 C   0  0  0  0  0  0  0  0  0  0  0  0
    0.8842    0.7601    0.2880 N   0  0  0  0  0  0  0  0  0  0  0  0
    2.2584    0.3399    0.3423 C   0  0  0  0  0  0  0  0  0  0  0  0
    2.6083   -1.0228    0.3892 C   0  0  0  0  0  0  0  0  0  0  0  0
    3.9518   -1.4035    0.4666 C   0  0  0  0  0  0  0  0  0  0  0  0
    4.9545   -0.4316    0.5109 C   0  0  0  0  0  0  0  0  0  0  0  0
    4.6150    0.9234    0.4869 C   0  0  0  0  0  0  0  0  0  0  0  0
    3.2729    1.3082    0.4105 C   0  0  0  0  0  0  0  0  0  0  0  0
   -2.9608   -1.3059    1.5541 H   0  0  0  0  0  0  0  0  0  0  0  0
   -3.7373   -0.2088    2.7595 H   0  0  0  0  0  0  0  0  0  0  0  0
   -5.1944   -0.7125    0.7335 H   0  0  0  0  0  0  0  0  0  0  0  0
   -4.9072    1.0371    1.0220 H   0  0  0  0  0  0  0  0  0  0  0  0
   -2.0396   -1.1854   -2.5958 H   0  0  0  0  0  0  0  0  0  0  0  0
   -3.2201    0.0921   -3.0544 H   0  0  0  0  0  0  0  0  0  0  0  0
   -1.4935    0.5344   -2.8420 H   0  0  0  0  0  0  0  0  0  0  0  0
    0.6439    1.6966    0.6850 H   0  0  0  0  0  0  0  0  0  0  0  0
    1.8470   -1.7914    0.3914 H   0  0  0  0  0  0  0  0  0  0  0  0
    4.2151   -2.4528    0.5011 H   0  0  0  0  0  0  0  0  0  0  0  0
    5.9936   -0.7283    0.5724 H   0  0  0  0  0  0  0  0  0  0  0  0
    5.3917    1.6759    0.5297 H   0  0  0  0  0  0  0  0  0  0  0  0
    3.0226    2.3616    0.3947 H   0  0  0  0  0  0  0  0  0  0  0  0
  1  2  2  0
  2  3  1  0
  2 10  1  0
  3  8  2  0
  3  4  1  0
  4  5  1  0
  5  6  1  0
  6  7  1  0
  7  8  1  0
  8  9  1  0
 10 11  1  0
 11 16  1  0
 11 12  2  0
 12 13  1  0
 13 14  2  0
 14 15  1  0
 15 16  2  0
  5 17  1  0
  5 18  1  0
  6 19  1  0
  6 20  1  0
  9 21  1  0
  9 22  1  0
  9 23  1  0
 10 24  1  0
 12 25  1  0
 13 26  1  0
 14 27  1  0
 15 28  1  0
 16 29  1  0
M  END
$$$$
