
     RDKit          3D

 46 48  0  0  1  0  0  0  0  0999 V2000
    2.5695   -1.3248   -0.9259 C   0  0  0  0  0  0  0  0  0  0  0  0
    3.4845   -1.4595    0.3088 C   0  0  0  0  0  0  0  0  0  0  0  0
    4.5386   -2.5696    0.2550 C   0  0  0  0  0  0  0  0  0  0  0  0
    3.9048   -0.1936    1.0731 C   0  0  1  0  0  0  0  0  0  0  0  0
    3.4008    1.1213    0.5254 C   0  0  0  0  0  0  0  0  0  0  0  0
    3.9560    1.7115   -0.5426 C   0  0  0  0  0  0  0  0  0  0  0  0
    3.3369    3.2592   -1.0954 Cl  0  0  0  0  0  0  0  0  0  0  0  0
    5.3113    0.9959   -1.4116 Cl  0  0  0  0  0  0  0  0  0  0  0  0
    2.9015   -1.1822    1.7047 C   0  0  1  0  0  0  0  0  0  0  0  0
    1.4546   -0.7802    1.7886 C   0  0  0  0  0  0  0  0  0  0  0  0
    1.0886    0.3558    2.5194 O   0  0  0  0  0  0  0  0  0  0  0  0
   -0.2487    0.8489    2.5699 C   0  0  0  0  0  0  0  0  0  0  0  0
   -0.6273    1.4601    1.2478 C   0  0  0  0  0  0  0  0  0  0  0  0
   -0.0460    2.6716    0.8446 C   0  0  0  0  0  0  0  0  0  0  0  0
   -0.3545    3.2195   -0.4024 C   0  0  0  0  0  0  0  0  0  0  0  0
   -1.2516    2.5679   -1.2519 C   0  0  0  0  0  0  0  0  0  0  0  0
   -1.8591    1.3710   -0.8565 C   0  0  0  0  0  0  0  0  0  0  0  0
   -2.7423    0.7395   -1.7447 O   0  0  0  0  0  0  0  0  0  0  0  0
   -3.8279   -0.0687   -1.3760 C   0  0  0  0  0  0  0  0  0  0  0  0
   -4.5542    0.1541   -0.1909 C   0  0  0  0  0  0  0  0  0  0  0  0
   -5.6408   -0.6647    0.1327 C   0  0  0  0  0  0  0  0  0  0  0  0
   -6.0171   -1.7009   -0.7263 C   0  0  0  0  0  0  0  0  0  0  0  0
   -5.3121   -1.9144   -1.9139 C   0  0  0  0  0  0  0  0  0  0  0  0
   -4.2255   -1.0967   -2.2402 C   0  0  0  0  0  0  0  0  0  0  0  0
   -1.5314    0.8104    0.3919 C   0  0  0  0  0  0  0  0  0  0  0  0
    0.5724   -1.5196    1.2727 O   0  0  0  0  0  0  0  0  0  0  0  0
    1.8482   -0.4849   -0.8496 H   0  0  0  0  0  0  0  0  0  0  0  0
    1.9952   -2.2650   -1.0610 H   0  0  0  0  0  0  0  0  0  0  0  0
    3.1916   -1.1637   -1.8304 H   0  0  0  0  0  0  0  0  0  0  0  0
    4.0355   -3.5513    0.1317 H   0  0  0  0  0  0  0  0  0  0  0  0
    5.2104   -2.3994   -0.6121 H   0  0  0  0  0  0  0  0  0  0  0  0
    5.1576   -2.6053    1.1772 H   0  0  0  0  0  0  0  0  0  0  0  0
    4.9264   -0.2143    1.5099 H   0  0  0  0  0  0  0  0  0  0  0  0
    2.6160    1.6460    1.0527 H   0  0  0  0  0  0  0  0  0  0  0  0
    3.3191   -1.7770    2.5448 H   0  0  0  0  0  0  0  0  0  0  0  0
   -0.3196    1.6223    3.3634 H   0  0  0  0  0  0  0  0  0  0  0  0
   -0.9419    0.0257    2.8509 H   0  0  0  0  0  0  0  0  0  0  0  0
    0.6541    3.1851    1.4919 H   0  0  0  0  0  0  0  0  0  0  0  0
    0.1053    4.1488   -0.7126 H   0  0  0  0  0  0  0  0  0  0  0  0
   -1.4819    2.9978   -2.2184 H   0  0  0  0  0  0  0  0  0  0  0  0
   -4.2945    0.9697    0.4711 H   0  0  0  0  0  0  0  0  0  0  0  0
   -6.1953   -0.4915    1.0459 H   0  0  0  0  0  0  0  0  0  0  0  0
   -6.8590   -2.3331   -0.4754 H   0  0  0  0  0  0  0  0  0  0  0  0
   -5.6084   -2.7122   -2.5826 H   0  0  0  0  0  0  0  0  0  0  0  0
   -3.6852   -1.2670   -3.1628 H   0  0  0  0  0  0  0  0  0  0  0  0
   -1.9545   -0.1422    0.6838 H   0  0  0  0  0  0  0  0  0  0  0  0
  1  2  1  0
  2  3  1  0
  2  4  1  0
  2  9  1  0
  4  9  1  0
  4  5  1  0
  5  6  2  0
  6  7  1  0
  6  8  1  0
  9 10  1  0
 10 26  2  0
 10 11  1  0
 11 12  1  0
 12 13  1  0
 13 14  2  0
 13 25  1  0
 14 15  1  0
 15 16  2  0
 16 17  1  0
 17 25  2  0
 17 18  1  0
 18 19  1  0
 19 24  1  0
 19 20  2  0
 20 21  1  0
 21 22  2  0
 22 23  1  0
 23 24  2  0
  1 27  1  0
  1 28  1  0
  1 29  1  0
  3 30  1  0
  3 31  1  0
  3 32  1  0
  4 33  1  1
  5 34  1  0
  9 35  1  1
 12 36  1  0
 12 37  1  0
 14 38  1  0
 15 39  1  0
 16 40  1  0
 20 41  1  0
 21 42  1  0
 22 43  1  0
 23 44  1  0
 24 45  1  0
 25 46  1  0
M  END
$$$$
