
     RDKit          3D

 22 23  0  0  0  0  0  0  0  0999 V2000
   -0.7435   -1.3188   -2.4158 Cl  0  0  0  0  0  0  0  0  0  0  0  0
   -1.5109   -0.5270   -1.0426 C   0  0  0  0  0  0  0  0  0  0  0  0
   -0.7503    0.0203    0.0078 C   0  0  0  0  0  0  0  0  0  0  0  0
    0.7246   -0.0577   -0.0295 C   0  0  0  0  0  0  0  0  0  0  0  0
    1.4465    0.9249   -0.7222 C   0  0  0  0  0  0  0  0  0  0  0  0
    2.8437    0.8752   -0.7727 C   0  0  0  0  0  0  0  0  0  0  0  0
    3.7085    2.1286   -1.6519 Cl  0  0  0  0  0  0  0  0  0  0  0  0
    3.5293   -0.1661   -0.1259 C   0  0  0  0  0  0  0  0  0  0  0  0
    5.2845   -0.2647   -0.1655 Cl  0  0  0  0  0  0  0  0  0  0  0  0
    2.8111   -1.1485    0.5646 C   0  0  0  0  0  0  0  0  0  0  0  0
    1.4138   -1.1012    0.6165 C   0  0  0  0  0  0  0  0  0  0  0  0
    0.5527   -2.3631    1.4908 Cl  0  0  0  0  0  0  0  0  0  0  0  0
   -1.4035    0.6427    1.0924 C   0  0  0  0  0  0  0  0  0  0  0  0
   -0.4603    1.3423    2.4127 Cl  0  0  0  0  0  0  0  0  0  0  0  0
   -2.8095    0.7098    1.1208 C   0  0  0  0  0  0  0  0  0  0  0  0
   -3.6357    1.4844    2.4736 Cl  0  0  0  0  0  0  0  0  0  0  0  0
   -3.5566    0.1575    0.0666 C   0  0  0  0  0  0  0  0  0  0  0  0
   -5.3149    0.2185    0.0617 Cl  0  0  0  0  0  0  0  0  0  0  0  0
   -2.9050   -0.4554   -1.0059 C   0  0  0  0  0  0  0  0  0  0  0  0
    0.9208    1.7298   -1.2219 H   0  0  0  0  0  0  0  0  0  0  0  0
    3.3405   -1.9518    1.0616 H   0  0  0  0  0  0  0  0  0  0  0  0
   -3.4858   -0.8798   -1.8154 H   0  0  0  0  0  0  0  0  0  0  0  0
  1  2  1  0
  2 19  2  0
  2  3  1  0
  3  4  1  0
  3 13  2  0
  4  5  2  0
  4 11  1  0
  5  6  1  0
  6  8  2  0
  6  7  1  0
  8 10  1  0
  8  9  1  0
 10 11  2  0
 11 12  1  0
 13 15  1  0
 13 14  1  0
 15 17  2  0
 15 16  1  0
 17 19  1  0
 17 18  1  0
  5 20  1  0
 10 21  1  0
 19 22  1  0
M  END
$$$$
