Clc(c(Cl)c2)c(c(Cl)c2Cl)c1c(Cl)c(Cl)ccc1
     RDKit          3D

 22 23  0  0  0  0  0  0  0  0999 V2000
    0.4072    2.2618   -1.6276 Cl  0  0  0  0  0  0  0  0  0  0  0  0
    1.3635    1.1220   -0.6758 C   0  0  0  0  0  0  0  0  0  0  0  0
    2.7579    1.2742   -0.5962 C   0  0  0  0  0  0  0  0  0  0  0  0
    3.5840    2.5843   -1.4307 Cl  0  0  0  0  0  0  0  0  0  0  0  0
    3.5172    0.3760    0.1571 C   0  0  0  0  0  0  0  0  0  0  0  0
    0.7349    0.0603    0.0080 C   0  0  0  0  0  0  0  0  0  0  0  0
    1.5092   -0.8431    0.7657 C   0  0  0  0  0  0  0  0  0  0  0  0
    0.7362   -2.1765    1.6283 Cl  0  0  0  0  0  0  0  0  0  0  0  0
    2.9027   -0.6784    0.8362 C   0  0  0  0  0  0  0  0  0  0  0  0
    3.9075   -1.7795    1.7706 Cl  0  0  0  0  0  0  0  0  0  0  0  0
   -0.7319   -0.1046   -0.0686 C   0  0  0  0  0  0  0  0  0  0  0  0
   -1.5849    0.5180    0.8663 C   0  0  0  0  0  0  0  0  0  0  0  0
   -0.9133    1.5157    2.1583 Cl  0  0  0  0  0  0  0  0  0  0  0  0
   -2.9770    0.3391    0.7631 C   0  0  0  0  0  0  0  0  0  0  0  0
   -4.0824    1.0942    1.9040 Cl  0  0  0  0  0  0  0  0  0  0  0  0
   -3.5061   -0.4524   -0.2624 C   0  0  0  0  0  0  0  0  0  0  0  0
   -2.6589   -1.0671   -1.1859 C   0  0  0  0  0  0  0  0  0  0  0  0
   -1.2771   -0.8949   -1.0907 C   0  0  0  0  0  0  0  0  0  0  0  0
    4.5917    0.4983    0.2152 H   0  0  0  0  0  0  0  0  0  0  0  0
   -4.5765   -0.5922   -0.3447 H   0  0  0  0  0  0  0  0  0  0  0  0
   -3.0740   -1.6782   -1.9769 H   0  0  0  0  0  0  0  0  0  0  0  0
   -0.6299   -1.3770   -1.8134 H   0  0  0  0  0  0  0  0  0  0  0  0
  1  2  1  0
  2  6  2  0
  2  3  1  0
  3  4  1  0
  3  5  2  0
  5  9  1  0
  6 11  1  0
  6  7  1  0
  7  9  2  0
  7  8  1  0
  9 10  1  0
 11 18  1  0
 11 12  2  0
 12 13  1  0
 12 14  1  0
 14 16  2  0
 14 15  1  0
 16 17  1  0
 17 18  2  0
  5 19  1  0
 16 20  1  0
 17 21  1  0
 18 22  1  0
M  END
$$$$
