
     RDKit          3D

 28 29  0  0  1  0  0  0  0  0999 V2000
   -1.7230    1.7399    2.7967 Cl  0  0  0  0  0  0  0  0  0  0  0  0
   -0.2116    0.9075    2.3313 C   0  0  0  0  0  0  0  0  0  0  0  0
    1.1313    1.7648    3.1414 Cl  0  0  0  0  0  0  0  0  0  0  0  0
   -0.0241    0.9172    0.7919 C   0  0  1  0  0  0  0  0  0  0  0  0
    1.2450    0.2510    0.2658 C   0  0  0  0  0  0  0  0  0  0  0  0
    1.6267    0.5027   -1.0662 C   0  0  0  0  0  0  0  0  0  0  0  0
    2.7764   -0.0816   -1.6039 C   0  0  0  0  0  0  0  0  0  0  0  0
    3.5650   -0.9268   -0.8203 C   0  0  0  0  0  0  0  0  0  0  0  0
    5.0071   -1.6609   -1.4972 Cl  0  0  0  0  0  0  0  0  0  0  0  0
    3.2020   -1.1878    0.5029 C   0  0  0  0  0  0  0  0  0  0  0  0
    2.0526   -0.6055    1.0457 C   0  0  0  0  0  0  0  0  0  0  0  0
   -1.2515    0.3745    0.0613 C   0  0  0  0  0  0  0  0  0  0  0  0
   -2.0112    1.2659   -0.7242 C   0  0  0  0  0  0  0  0  0  0  0  0
   -3.1432    0.8283   -1.4139 C   0  0  0  0  0  0  0  0  0  0  0  0
   -3.5368   -0.5058   -1.3362 C   0  0  0  0  0  0  0  0  0  0  0  0
   -2.7981   -1.4072   -0.5704 C   0  0  0  0  0  0  0  0  0  0  0  0
   -1.6596   -0.9844    0.1278 C   0  0  0  0  0  0  0  0  0  0  0  0
   -0.7872   -2.2052    1.0467 Cl  0  0  0  0  0  0  0  0  0  0  0  0
   -0.2665   -0.1232    2.7311 H   0  0  0  0  0  0  0  0  0  0  0  0
    0.0885    1.9958    0.5377 H   0  0  0  0  0  0  0  0  0  0  0  0
    1.0289    1.1552   -1.6910 H   0  0  0  0  0  0  0  0  0  0  0  0
    3.0527    0.1238   -2.6303 H   0  0  0  0  0  0  0  0  0  0  0  0
    3.8087   -1.8450    1.1128 H   0  0  0  0  0  0  0  0  0  0  0  0
    1.8014   -0.8429    2.0688 H   0  0  0  0  0  0  0  0  0  0  0  0
   -1.7306    2.3088   -0.8032 H   0  0  0  0  0  0  0  0  0  0  0  0
   -3.7163    1.5264   -2.0104 H   0  0  0  0  0  0  0  0  0  0  0  0
   -4.4146   -0.8430   -1.8723 H   0  0  0  0  0  0  0  0  0  0  0  0
   -3.1119   -2.4425   -0.5223 H   0  0  0  0  0  0  0  0  0  0  0  0
  1  2  1  0
  2  4  1  0
  2  3  1  0
  4  5  1  0
  4 12  1  0
  5 11  1  0
  5  6  2  0
  6  7  1  0
  7  8  2  0
  8 10  1  0
  8  9  1  0
 10 11  2  0
 12 13  2  0
 12 17  1  0
 13 14  1  0
 14 15  2  0
 15 16  1  0
 16 17  2  0
 17 18  1  0
  2 19  1  0
  4 20  1  6
  6 21  1  0
  7 22  1  0
 10 23  1  0
 11 24  1  0
 13 25  1  0
 14 26  1  0
 15 27  1  0
 16 28  1  0
M  END
$$$$
