CC34CCC2c1c(CCC2C3CCC4=O)cc(O)cc1
     RDKit          3D

 42 45  0  0  1  0  0  0  0  0999 V2000
   -2.8597    1.7143   -0.6318 C   0  0  0  0  0  0  0  0  0  0  0  0
   -2.4773    0.5481    0.3073 C   0  0  2  0  0  0  0  0  0  0  0  0
   -1.6181    1.0554    1.4945 C   0  0  0  0  0  0  0  0  0  0  0  0
   -0.1948    1.4856    1.0739 C   0  0  0  0  0  0  0  0  0  0  0  0
    0.3867    0.6703   -0.1152 C   0  0  1  0  0  0  0  0  0  0  0  0
    1.9122    0.6246   -0.0959 C   0  0  0  0  0  0  0  0  0  0  0  0
    2.6215   -0.5649   -0.4046 C   0  0  0  0  0  0  0  0  0  0  0  0
    1.9080   -1.8589   -0.7121 C   0  0  0  0  0  0  0  0  0  0  0  0
    0.4664   -1.6289   -1.1669 C   0  0  0  0  0  0  0  0  0  0  0  0
   -0.2573   -0.7343   -0.1519 C   0  0  2  0  0  0  0  0  0  0  0  0
   -1.7772   -0.6133   -0.4672 C   0  0  1  0  0  0  0  0  0  0  0  0
   -2.5409   -1.9134   -0.1218 C   0  0  0  0  0  0  0  0  0  0  0  0
   -3.8802   -1.5187    0.4868 C   0  0  0  0  0  0  0  0  0  0  0  0
   -3.7293   -0.0859    0.8234 C   0  0  0  0  0  0  0  0  0  0  0  0
   -4.5743    0.5265    1.4597 O   0  0  0  0  0  0  0  0  0  0  0  0
    4.0259   -0.5601   -0.3928 C   0  0  0  0  0  0  0  0  0  0  0  0
    4.7323    0.6203   -0.1374 C   0  0  0  0  0  0  0  0  0  0  0  0
    6.1254    0.6279   -0.1321 O   0  0  0  0  0  0  0  0  0  0  0  0
    4.0368    1.8042    0.1071 C   0  0  0  0  0  0  0  0  0  0  0  0
    2.6410    1.8114    0.1159 C   0  0  0  0  0  0  0  0  0  0  0  0
   -3.3899    2.5118   -0.0679 H   0  0  0  0  0  0  0  0  0  0  0  0
   -3.5321    1.3594   -1.4430 H   0  0  0  0  0  0  0  0  0  0  0  0
   -1.9636    2.1660   -1.1019 H   0  0  0  0  0  0  0  0  0  0  0  0
   -2.1232    1.9058    2.0035 H   0  0  0  0  0  0  0  0  0  0  0  0
   -1.5273    0.2424    2.2501 H   0  0  0  0  0  0  0  0  0  0  0  0
   -0.2169    2.5618    0.7951 H   0  0  0  0  0  0  0  0  0  0  0  0
    0.4662    1.3894    1.9637 H   0  0  0  0  0  0  0  0  0  0  0  0
    0.1150    1.1939   -1.0580 H   0  0  0  0  0  0  0  0  0  0  0  0
    2.4466   -2.4082   -1.5150 H   0  0  0  0  0  0  0  0  0  0  0  0
    1.9130   -2.4948    0.1998 H   0  0  0  0  0  0  0  0  0  0  0  0
    0.4595   -1.1538   -2.1730 H   0  0  0  0  0  0  0  0  0  0  0  0
   -0.0426   -2.6136   -1.2452 H   0  0  0  0  0  0  0  0  0  0  0  0
   -0.1314   -1.1945    0.8561 H   0  0  0  0  0  0  0  0  0  0  0  0
   -1.8931   -0.4421   -1.5627 H   0  0  0  0  0  0  0  0  0  0  0  0
   -1.9819   -2.5253    0.6201 H   0  0  0  0  0  0  0  0  0  0  0  0
   -2.6937   -2.5343   -1.0316 H   0  0  0  0  0  0  0  0  0  0  0  0
   -4.7039   -1.6444   -0.2485 H   0  0  0  0  0  0  0  0  0  0  0  0
   -4.0907   -2.1145    1.4013 H   0  0  0  0  0  0  0  0  0  0  0  0
    4.5720   -1.4737   -0.5952 H   0  0  0  0  0  0  0  0  0  0  0  0
    6.6606   -0.2144   -0.3083 H   0  0  0  0  0  0  0  0  0  0  0  0
    4.5795    2.7234    0.2880 H   0  0  0  0  0  0  0  0  0  0  0  0
    2.1303    2.7491    0.2916 H   0  0  0  0  0  0  0  0  0  0  0  0
  2  1  1  6
  2  3  1  0
  2 11  1  0
  2 14  1  0
  3  4  1  0
  4  5  1  0
  5 10  1  0
  5  6  1  0
  6 20  2  0
  6  7  1  0
  7  8  1  0
  7 16  2  0
  8  9  1  0
  9 10  1  0
 10 11  1  0
 11 12  1  0
 12 13  1  0
 13 14  1  0
 14 15  2  0
 16 17  1  0
 17 19  2  0
 17 18  1  0
 19 20  1  0
  1 21  1  0
  1 22  1  0
  1 23  1  0
  3 24  1  0
  3 25  1  0
  4 26  1  0
  4 27  1  0
  5 28  1  6
  8 29  1  0
  8 30  1  0
  9 31  1  0
  9 32  1  0
 10 33  1  1
 11 34  1  6
 12 35  1  0
 12 36  1  0
 13 37  1  0
 13 38  1  0
 16 39  1  0
 18 40  1  0
 19 41  1  0
 20 42  1  0
M  END
$$$$
