OC1CCC2(C)C(CCC3C2CCC4(C)C3CCC4=O)C1
     RDKit          3D

 51 54  0  0  1  0  0  0  0  0999 V2000
    5.6103   -0.2754   -0.4370 O   0  0  0  0  0  0  0  0  0  0  0  0
    4.2360   -0.0539   -0.6247 C   0  0  2  0  0  0  0  0  0  0  0  0
    3.7950    1.2574    0.0790 C   0  0  0  0  0  0  0  0  0  0  0  0
    2.2588    1.4627    0.1189 C   0  0  0  0  0  0  0  0  0  0  0  0
    1.5030    0.2085    0.6391 C   0  0  2  0  0  0  0  0  0  0  0  0
    1.9079   -0.0488    2.1263 C   0  0  0  0  0  0  0  0  0  0  0  0
    1.9252   -0.9787   -0.3015 C   0  0  2  0  0  0  0  0  0  0  0  0
    0.9683   -2.1885   -0.1858 C   0  0  0  0  0  0  0  0  0  0  0  0
   -0.4811   -1.8127   -0.6291 C   0  0  0  0  0  0  0  0  0  0  0  0
   -0.7058   -0.2791   -0.6644 C   0  0  2  0  0  0  0  0  0  0  0  0
   -0.0737    0.3625    0.6059 C   0  0  2  0  0  0  0  0  0  0  0  0
   -0.6583    1.7726    0.8956 C   0  0  0  0  0  0  0  0  0  0  0  0
   -2.2099    1.7521    1.1131 C   0  0  0  0  0  0  0  0  0  0  0  0
   -2.9309    0.5593    0.4065 C   0  0  2  0  0  0  0  0  0  0  0  0
   -3.1831   -0.6289    1.3769 C   0  0  0  0  0  0  0  0  0  0  0  0
   -2.1598    0.2072   -0.8725 C   0  0  2  0  0  0  0  0  0  0  0  0
   -3.1334   -0.5449   -1.7770 C   0  0  0  0  0  0  0  0  0  0  0  0
   -4.4675    0.1801   -1.5237 C   0  0  0  0  0  0  0  0  0  0  0  0
   -4.2625    0.8707   -0.2060 C   0  0  0  0  0  0  0  0  0  0  0  0
   -5.1159    1.5602    0.3311 O   0  0  0  0  0  0  0  0  0  0  0  0
    3.4214   -1.2997   -0.1929 C   0  0  0  0  0  0  0  0  0  0  0  0
    5.7595   -0.4186    0.5342 H   0  0  0  0  0  0  0  0  0  0  0  0
    4.0731    0.0901   -1.7158 H   0  0  0  0  0  0  0  0  0  0  0  0
    4.2484    2.1169   -0.4609 H   0  0  0  0  0  0  0  0  0  0  0  0
    4.2063    1.2961    1.1089 H   0  0  0  0  0  0  0  0  0  0  0  0
    2.0443    2.3402    0.7659 H   0  0  0  0  0  0  0  0  0  0  0  0
    1.9034    1.7140   -0.9049 H   0  0  0  0  0  0  0  0  0  0  0  0
    1.4619   -0.9911    2.5068 H   0  0  0  0  0  0  0  0  0  0  0  0
    2.9986   -0.1244    2.2872 H   0  0  0  0  0  0  0  0  0  0  0  0
    1.5473    0.7814    2.7699 H   0  0  0  0  0  0  0  0  0  0  0  0
    1.8227   -0.6515   -1.3612 H   0  0  0  0  0  0  0  0  0  0  0  0
    0.9570   -2.5601    0.8604 H   0  0  0  0  0  0  0  0  0  0  0  0
    1.3363   -3.0204   -0.8248 H   0  0  0  0  0  0  0  0  0  0  0  0
   -1.2066   -2.2903    0.0627 H   0  0  0  0  0  0  0  0  0  0  0  0
   -0.6695   -2.2221   -1.6454 H   0  0  0  0  0  0  0  0  0  0  0  0
   -0.1628    0.1088   -1.5548 H   0  0  0  0  0  0  0  0  0  0  0  0
   -0.4286   -0.2475    1.4519 H   0  0  0  0  0  0  0  0  0  0  0  0
   -0.4218    2.4420    0.0400 H   0  0  0  0  0  0  0  0  0  0  0  0
   -0.1791    2.2049    1.7996 H   0  0  0  0  0  0  0  0  0  0  0  0
   -2.6189    2.7156    0.7370 H   0  0  0  0  0  0  0  0  0  0  0  0
   -2.4243    1.7267    2.2039 H   0  0  0  0  0  0  0  0  0  0  0  0
   -2.2959   -0.9674    1.9325 H   0  0  0  0  0  0  0  0  0  0  0  0
   -3.5960   -1.5098    0.8419 H   0  0  0  0  0  0  0  0  0  0  0  0
   -3.9285   -0.3289    2.1452 H   0  0  0  0  0  0  0  0  0  0  0  0
   -2.0245    1.1817   -1.4128 H   0  0  0  0  0  0  0  0  0  0  0  0
   -2.8315   -0.4782   -2.8449 H   0  0  0  0  0  0  0  0  0  0  0  0
   -3.2087   -1.6125   -1.4795 H   0  0  0  0  0  0  0  0  0  0  0  0
   -5.3108   -0.5407   -1.4661 H   0  0  0  0  0  0  0  0  0  0  0  0
   -4.6583    0.9357   -2.3159 H   0  0  0  0  0  0  0  0  0  0  0  0
    3.6938   -1.6366    0.8278 H   0  0  0  0  0  0  0  0  0  0  0  0
    3.6691   -2.1364   -0.8824 H   0  0  0  0  0  0  0  0  0  0  0  0
  1  2  1  0
  2  3  1  0
  2 21  1  0
  3  4  1  0
  4  5  1  0
  5  6  1  1
  5  7  1  0
  5 11  1  0
  7  8  1  0
  7 21  1  0
  8  9  1  0
  9 10  1  0
 10 11  1  0
 10 16  1  0
 11 12  1  0
 12 13  1  0
 13 14  1  0
 14 15  1  1
 14 16  1  0
 14 19  1  0
 16 17  1  0
 17 18  1  0
 18 19  1  0
 19 20  2  0
  1 22  1  0
  2 23  1  6
  3 24  1  0
  3 25  1  0
  4 26  1  0
  4 27  1  0
  6 28  1  0
  6 29  1  0
  6 30  1  0
  7 31  1  6
  8 32  1  0
  8 33  1  0
  9 34  1  0
  9 35  1  0
 10 36  1  6
 11 37  1  1
 12 38  1  0
 12 39  1  0
 13 40  1  0
 13 41  1  0
 15 42  1  0
 15 43  1  0
 15 44  1  0
 16 45  1  6
 17 46  1  0
 17 47  1  0
 18 48  1  0
 18 49  1  0
 21 50  1  0
 21 51  1  0
M  END
$$$$
