CC(C3=CC2)(CCC(O)C3)C1C2C(CCC4=O)C4(C)CC1
     RDKit          3D

 49 52  0  0  1  0  0  0  0  0999 V2000
    0.9586   -2.0510    0.1045 C   0  0  0  0  0  0  0  0  0  0  0  0
    1.4405   -0.6194   -0.2530 C   0  0  1  0  0  0  0  0  0  0  0  0
    2.2535   -0.0534    0.9310 C   0  0  0  0  0  0  0  0  0  0  0  0
    1.6001    0.3830    2.0255 C   0  0  0  0  0  0  0  0  0  0  0  0
    0.1068    0.3271    2.1470 C   0  0  0  0  0  0  0  0  0  0  0  0
    2.3198   -0.7579   -1.5456 C   0  0  0  0  0  0  0  0  0  0  0  0
    3.4367    0.2744   -1.6376 C   0  0  0  0  0  0  0  0  0  0  0  0
    4.4146    0.0289   -0.4876 C   0  0  1  0  0  0  0  0  0  0  0  0
    5.5612    0.8315   -0.6252 O   0  0  0  0  0  0  0  0  0  0  0  0
    3.7431    0.2660    0.8736 C   0  0  0  0  0  0  0  0  0  0  0  0
    0.2294    0.3709   -0.4770 C   0  0  2  0  0  0  0  0  0  0  0  0
   -0.6429    0.6333    0.8165 C   0  0  1  0  0  0  0  0  0  0  0  0
   -2.0361   -0.0842    0.7774 C   0  0  1  0  0  0  0  0  0  0  0  0
   -2.9585    0.3621    1.9396 C   0  0  0  0  0  0  0  0  0  0  0  0
   -3.8607    1.4636    1.3997 C   0  0  0  0  0  0  0  0  0  0  0  0
   -3.8442    1.2455   -0.0634 C   0  0  0  0  0  0  0  0  0  0  0  0
   -4.5787    1.8541   -0.8275 O   0  0  0  0  0  0  0  0  0  0  0  0
   -2.8539    0.2190   -0.5159 C   0  0  2  0  0  0  0  0  0  0  0  0
   -3.6231   -1.0375   -0.9806 C   0  0  0  0  0  0  0  0  0  0  0  0
   -1.9825    0.7810   -1.6637 C   0  0  0  0  0  0  0  0  0  0  0  0
   -0.6369    0.0640   -1.7282 C   0  0  0  0  0  0  0  0  0  0  0  0
    0.4774   -2.5421   -0.7665 H   0  0  0  0  0  0  0  0  0  0  0  0
    0.2416   -2.0803    0.9395 H   0  0  0  0  0  0  0  0  0  0  0  0
    1.8258   -2.6796    0.4028 H   0  0  0  0  0  0  0  0  0  0  0  0
    2.1523    0.8546    2.8352 H   0  0  0  0  0  0  0  0  0  0  0  0
   -0.1746   -0.6648    2.5559 H   0  0  0  0  0  0  0  0  0  0  0  0
   -0.1905    1.0713    2.9168 H   0  0  0  0  0  0  0  0  0  0  0  0
    2.8000   -1.7626   -1.5833 H   0  0  0  0  0  0  0  0  0  0  0  0
    1.7213   -0.7203   -2.4738 H   0  0  0  0  0  0  0  0  0  0  0  0
    3.9688    0.1513   -2.6061 H   0  0  0  0  0  0  0  0  0  0  0  0
    3.0202    1.3046   -1.5949 H   0  0  0  0  0  0  0  0  0  0  0  0
    4.7515   -1.0311   -0.5274 H   0  0  0  0  0  0  0  0  0  0  0  0
    5.2654    1.7785   -0.6738 H   0  0  0  0  0  0  0  0  0  0  0  0
    3.8723    1.3382    1.1441 H   0  0  0  0  0  0  0  0  0  0  0  0
    4.2723   -0.3327    1.6467 H   0  0  0  0  0  0  0  0  0  0  0  0
    0.7032    1.3549   -0.7035 H   0  0  0  0  0  0  0  0  0  0  0  0
   -0.8565    1.7276    0.8283 H   0  0  0  0  0  0  0  0  0  0  0  0
   -1.8577   -1.1778    0.8674 H   0  0  0  0  0  0  0  0  0  0  0  0
   -2.4223    0.7086    2.8449 H   0  0  0  0  0  0  0  0  0  0  0  0
   -3.5919   -0.5016    2.2418 H   0  0  0  0  0  0  0  0  0  0  0  0
   -4.8911    1.3667    1.8047 H   0  0  0  0  0  0  0  0  0  0  0  0
   -3.4453    2.4675    1.6330 H   0  0  0  0  0  0  0  0  0  0  0  0
   -4.2663   -0.8037   -1.8563 H   0  0  0  0  0  0  0  0  0  0  0  0
   -4.2749   -1.4225   -0.1664 H   0  0  0  0  0  0  0  0  0  0  0  0
   -2.9209   -1.8475   -1.2689 H   0  0  0  0  0  0  0  0  0  0  0  0
   -2.5063    0.6748   -2.6394 H   0  0  0  0  0  0  0  0  0  0  0  0
   -1.7947    1.8695   -1.5196 H   0  0  0  0  0  0  0  0  0  0  0  0
   -0.8038   -1.0244   -1.8485 H   0  0  0  0  0  0  0  0  0  0  0  0
   -0.1221    0.4297   -2.6422 H   0  0  0  0  0  0  0  0  0  0  0  0
  2  1  1  1
  2  6  1  0
  2 11  1  0
  2  3  1  0
  3 10  1  0
  3  4  2  0
  4  5  1  0
  5 12  1  0
  6  7  1  0
  7  8  1  0
  8 10  1  0
  8  9  1  0
 11 21  1  0
 11 12  1  0
 12 13  1  0
 13 14  1  0
 13 18  1  0
 14 15  1  0
 15 16  1  0
 16 18  1  0
 16 17  2  0
 18 19  1  6
 18 20  1  0
 20 21  1  0
  1 22  1  0
  1 23  1  0
  1 24  1  0
  4 25  1  0
  5 26  1  0
  5 27  1  0
  6 28  1  0
  6 29  1  0
  7 30  1  0
  7 31  1  0
  8 32  1  1
  9 33  1  0
 10 34  1  0
 10 35  1  0
 11 36  1  6
 12 37  1  1
 13 38  1  1
 14 39  1  0
 14 40  1  0
 15 41  1  0
 15 42  1  0
 19 43  1  0
 19 44  1  0
 19 45  1  0
 20 46  1  0
 20 47  1  0
 21 48  1  0
 21 49  1  0
M  END
$$$$
