c12c(cccc3)c3ccc1cc4c(ccc5c4cccc5)c2
     RDKit          3D

 36 40  0  0  0  0  0  0  0  0999 V2000
    1.4286    0.0481   -0.0886 C   0  0  0  0  0  0  0  0  0  0  0  0
    2.8575    0.0508   -0.1775 C   0  0  0  0  0  0  0  0  0  0  0  0
    3.6130    1.2027   -0.5140 C   0  0  0  0  0  0  0  0  0  0  0  0
    5.0071    1.1510   -0.5870 C   0  0  0  0  0  0  0  0  0  0  0  0
    5.6832   -0.0378   -0.3295 C   0  0  0  0  0  0  0  0  0  0  0  0
    4.9703   -1.1866    0.0035 C   0  0  0  0  0  0  0  0  0  0  0  0
    3.5685   -1.1557    0.0823 C   0  0  0  0  0  0  0  0  0  0  0  0
    2.8779   -2.3232    0.4187 C   0  0  0  0  0  0  0  0  0  0  0  0
    1.4921   -2.3230    0.5042 C   0  0  0  0  0  0  0  0  0  0  0  0
    0.7596   -1.1549    0.2554 C   0  0  0  0  0  0  0  0  0  0  0  0
   -0.6406   -1.1944    0.3518 C   0  0  0  0  0  0  0  0  0  0  0  0
   -1.4286   -0.0481    0.1120 C   0  0  0  0  0  0  0  0  0  0  0  0
   -0.7596    1.1549   -0.2320 C   0  0  0  0  0  0  0  0  0  0  0  0
   -1.4921    2.3230   -0.4808 C   0  0  0  0  0  0  0  0  0  0  0  0
   -2.8779    2.3232   -0.3953 C   0  0  0  0  0  0  0  0  0  0  0  0
   -3.5685    1.1557   -0.0588 C   0  0  0  0  0  0  0  0  0  0  0  0
   -2.8575   -0.0508    0.2009 C   0  0  0  0  0  0  0  0  0  0  0  0
   -3.6130   -1.2027    0.5374 C   0  0  0  0  0  0  0  0  0  0  0  0
   -5.0071   -1.1510    0.6104 C   0  0  0  0  0  0  0  0  0  0  0  0
   -5.6832    0.0378    0.3530 C   0  0  0  0  0  0  0  0  0  0  0  0
   -4.9703    1.1866    0.0199 C   0  0  0  0  0  0  0  0  0  0  0  0
    0.6406    1.1944   -0.3284 C   0  0  0  0  0  0  0  0  0  0  0  0
    3.1626    2.1572   -0.7264 H   0  0  0  0  0  0  0  0  0  0  0  0
    5.5668    2.0410   -0.8455 H   0  0  0  0  0  0  0  0  0  0  0  0
    6.7636   -0.0693   -0.3883 H   0  0  0  0  0  0  0  0  0  0  0  0
    5.5158   -2.1022    0.2003 H   0  0  0  0  0  0  0  0  0  0  0  0
    3.4137   -3.2443    0.6174 H   0  0  0  0  0  0  0  0  0  0  0  0
    0.9889   -3.2462    0.7676 H   0  0  0  0  0  0  0  0  0  0  0  0
   -1.0880   -2.1380    0.6169 H   0  0  0  0  0  0  0  0  0  0  0  0
   -0.9889    3.2462   -0.7442 H   0  0  0  0  0  0  0  0  0  0  0  0
   -3.4137    3.2443   -0.5940 H   0  0  0  0  0  0  0  0  0  0  0  0
   -3.1626   -2.1572    0.7497 H   0  0  0  0  0  0  0  0  0  0  0  0
   -5.5668   -2.0410    0.8689 H   0  0  0  0  0  0  0  0  0  0  0  0
   -6.7636    0.0693    0.4118 H   0  0  0  0  0  0  0  0  0  0  0  0
   -5.5158    2.1022   -0.1768 H   0  0  0  0  0  0  0  0  0  0  0  0
    1.0880    2.1380   -0.5935 H   0  0  0  0  0  0  0  0  0  0  0  0
  1  2  1  0
  1 10  2  0
  1 22  1  0
  2  3  2  0
  2  7  1  0
  3  4  1  0
  4  5  2  0
  5  6  1  0
  6  7  2  0
  7  8  1  0
  8  9  2  0
  9 10  1  0
 10 11  1  0
 11 12  2  0
 12 13  1  0
 12 17  1  0
 13 14  1  0
 13 22  2  0
 14 15  2  0
 15 16  1  0
 16 21  1  0
 16 17  2  0
 17 18  1  0
 18 19  2  0
 19 20  1  0
 20 21  2  0
  3 23  1  0
  4 24  1  0
  5 25  1  0
  6 26  1  0
  8 27  1  0
  9 28  1  0
 11 29  1  0
 14 30  1  0
 15 31  1  0
 18 32  1  0
 19 33  1  0
 20 34  1  0
 21 35  1  0
 22 36  1  0
M  END
$$$$
