Clc(cc3)ccc3C(n2c(C)c(CC(O)=O)c1cc(OC)ccc12)=O
     RDKit          3D

 41 43  0  0  0  0  0  0  0  0999 V2000
    5.9448    2.1336   -2.6525 Cl  0  0  0  0  0  0  0  0  0  0  0  0
    4.8052    1.2375   -1.6652 C   0  0  0  0  0  0  0  0  0  0  0  0
    5.1882    0.7679   -0.4056 C   0  0  0  0  0  0  0  0  0  0  0  0
    4.2810    0.0544    0.3835 C   0  0  0  0  0  0  0  0  0  0  0  0
    3.5138    0.9886   -2.1382 C   0  0  0  0  0  0  0  0  0  0  0  0
    2.6035    0.2756   -1.3525 C   0  0  0  0  0  0  0  0  0  0  0  0
    2.9749   -0.1921   -0.0782 C   0  0  0  0  0  0  0  0  0  0  0  0
    2.0128   -0.9458    0.7616 C   0  0  0  0  0  0  0  0  0  0  0  0
    0.6039   -0.9156    0.4822 N   0  0  0  0  0  0  0  0  0  0  0  0
   -0.2042   -1.9771    0.2207 C   0  0  0  0  0  0  0  0  0  0  0  0
    0.2639   -3.3968    0.0781 C   0  0  0  0  0  0  0  0  0  0  0  0
   -1.5102   -1.5409   -0.0149 C   0  0  0  0  0  0  0  0  0  0  0  0
   -2.7149   -2.3899   -0.3212 C   0  0  0  0  0  0  0  0  0  0  0  0
   -3.4277   -2.8460    0.9220 C   0  0  0  0  0  0  0  0  0  0  0  0
   -4.5614   -3.6450    0.8142 O   0  0  0  0  0  0  0  0  0  0  0  0
   -3.0161   -2.5162    2.0670 O   0  0  0  0  0  0  0  0  0  0  0  0
   -1.4837   -0.1701    0.1637 C   0  0  0  0  0  0  0  0  0  0  0  0
   -2.5041    0.7789    0.0993 C   0  0  0  0  0  0  0  0  0  0  0  0
   -2.1823    2.1270    0.3459 C   0  0  0  0  0  0  0  0  0  0  0  0
   -3.2120    3.0767    0.2764 O   0  0  0  0  0  0  0  0  0  0  0  0
   -3.0351    4.4710    0.5034 C   0  0  0  0  0  0  0  0  0  0  0  0
   -0.8415    2.4829    0.6567 C   0  0  0  0  0  0  0  0  0  0  0  0
    0.1641    1.5030    0.7197 C   0  0  0  0  0  0  0  0  0  0  0  0
   -0.1900    0.1768    0.4590 C   0  0  0  0  0  0  0  0  0  0  0  0
    2.4298   -1.6196    1.7425 O   0  0  0  0  0  0  0  0  0  0  0  0
    6.1882    0.9562   -0.0359 H   0  0  0  0  0  0  0  0  0  0  0  0
    4.5983   -0.2956    1.3579 H   0  0  0  0  0  0  0  0  0  0  0  0
    3.2143    1.3449   -3.1156 H   0  0  0  0  0  0  0  0  0  0  0  0
    1.6138    0.0846   -1.7471 H   0  0  0  0  0  0  0  0  0  0  0  0
    0.4098   -3.6291   -0.9973 H   0  0  0  0  0  0  0  0  0  0  0  0
    1.2179   -3.5651    0.6151 H   0  0  0  0  0  0  0  0  0  0  0  0
   -0.4920   -4.0906    0.5014 H   0  0  0  0  0  0  0  0  0  0  0  0
   -3.4240   -1.8143   -0.9521 H   0  0  0  0  0  0  0  0  0  0  0  0
   -2.4035   -3.2806   -0.9061 H   0  0  0  0  0  0  0  0  0  0  0  0
   -4.9172   -3.9276   -0.0912 H   0  0  0  0  0  0  0  0  0  0  0  0
   -3.5216    0.4893   -0.1295 H   0  0  0  0  0  0  0  0  0  0  0  0
   -2.3203    4.8905   -0.2358 H   0  0  0  0  0  0  0  0  0  0  0  0
   -4.0113    4.9843    0.3846 H   0  0  0  0  0  0  0  0  0  0  0  0
   -2.6648    4.6460    1.5357 H   0  0  0  0  0  0  0  0  0  0  0  0
   -0.5711    3.5109    0.8546 H   0  0  0  0  0  0  0  0  0  0  0  0
    1.1805    1.7772    0.9690 H   0  0  0  0  0  0  0  0  0  0  0  0
  1  2  1  0
  2  3  2  0
  2  5  1  0
  3  4  1  0
  4  7  2  0
  5  6  2  0
  6  7  1  0
  7  8  1  0
  8  9  1  0
  8 25  2  0
  9 10  1  0
  9 24  1  0
 10 11  1  0
 10 12  2  0
 12 13  1  0
 12 17  1  0
 13 14  1  0
 14 15  1  0
 14 16  2  0
 17 18  1  0
 17 24  2  0
 18 19  2  0
 19 22  1  0
 19 20  1  0
 20 21  1  0
 22 23  2  0
 23 24  1  0
  3 26  1  0
  4 27  1  0
  5 28  1  0
  6 29  1  0
 11 30  1  0
 11 31  1  0
 11 32  1  0
 13 33  1  0
 13 34  1  0
 15 35  1  0
 18 36  1  0
 21 37  1  0
 21 38  1  0
 21 39  1  0
 22 40  1  0
 23 41  1  0
M  END
$$$$
