CC(Nc(cccc1)c1Cl)=O
     RDKit          3D

 19 19  0  0  0  0  0  0  0  0999 V2000
    3.4968   -0.3565    0.0213 C   0  0  0  0  0  0  0  0  0  0  0  0
    2.0990    0.1041   -0.2414 C   0  0  0  0  0  0  0  0  0  0  0  0
    0.9797   -0.6697    0.2196 N   0  0  0  0  0  0  0  0  0  0  0  0
   -0.3810   -0.2045    0.1723 C   0  0  0  0  0  0  0  0  0  0  0  0
   -0.6924    1.1294    0.4955 C   0  0  0  0  0  0  0  0  0  0  0  0
   -2.0176    1.5722    0.4769 C   0  0  0  0  0  0  0  0  0  0  0  0
   -3.0462    0.6886    0.1462 C   0  0  0  0  0  0  0  0  0  0  0  0
   -2.7528   -0.6415   -0.1614 C   0  0  0  0  0  0  0  0  0  0  0  0
   -1.4280   -1.0950   -0.1444 C   0  0  0  0  0  0  0  0  0  0  0  0
   -1.1076   -2.7741   -0.5601 Cl  0  0  0  0  0  0  0  0  0  0  0  0
    1.9182    1.1637   -0.8998 O   0  0  0  0  0  0  0  0  0  0  0  0
    4.0426    0.4226    0.5934 H   0  0  0  0  0  0  0  0  0  0  0  0
    4.0176   -0.5327   -0.9429 H   0  0  0  0  0  0  0  0  0  0  0  0
    3.5018   -1.2984    0.6087 H   0  0  0  0  0  0  0  0  0  0  0  0
    1.1607   -1.6434    0.5520 H   0  0  0  0  0  0  0  0  0  0  0  0
    0.0863    1.8228    0.7852 H   0  0  0  0  0  0  0  0  0  0  0  0
   -2.2479    2.5998    0.7270 H   0  0  0  0  0  0  0  0  0  0  0  0
   -4.0722    1.0334    0.1332 H   0  0  0  0  0  0  0  0  0  0  0  0
   -3.5571   -1.3206   -0.4144 H   0  0  0  0  0  0  0  0  0  0  0  0
  1  2  1  0
  2  3  1  0
  2 11  2  0
  3  4  1  0
  4  5  2  0
  4  9  1  0
  5  6  1  0
  6  7  2  0
  7  8  1  0
  8  9  2  0
  9 10  1  0
  1 12  1  0
  1 13  1  0
  1 14  1  0
  3 15  1  0
  5 16  1  0
  6 17  1  0
  7 18  1  0
  8 19  1  0
M  END
$$$$
