O=C([NH]O)C(c1ccc(CC(C)C)cc1)C
     RDKit          3D

 35 35  0  0  1  0  0  0  0  0999 V2000
    4.3613   -1.0506   -1.2685 O   0  0  0  0  0  0  0  0  0  0  0  0
    3.9838   -0.0698   -0.5713 C   0  0  0  0  0  0  0  0  0  0  0  0
    4.3782    1.2511   -0.9575 N   0  0  0  0  0  0  0  0  0  0  0  0
    3.9311    2.3415   -0.2892 O   0  0  0  0  0  0  0  0  0  0  0  0
    3.0762   -0.2847    0.6184 C   0  0  1  0  0  0  0  0  0  0  0  0
    1.6338   -0.0262    0.2340 C   0  0  0  0  0  0  0  0  0  0  0  0
    1.0050   -0.7871   -0.7691 C   0  0  0  0  0  0  0  0  0  0  0  0
   -0.3255   -0.5402   -1.1171 C   0  0  0  0  0  0  0  0  0  0  0  0
   -1.0506    0.4737   -0.4727 C   0  0  0  0  0  0  0  0  0  0  0  0
   -2.4946    0.7261   -0.8278 C   0  0  0  0  0  0  0  0  0  0  0  0
   -3.4622    0.1125    0.2069 C   0  0  0  0  0  0  0  0  0  0  0  0
   -3.3878   -1.4217    0.2116 C   0  0  0  0  0  0  0  0  0  0  0  0
   -4.8987    0.5666   -0.0796 C   0  0  0  0  0  0  0  0  0  0  0  0
   -0.4280    1.2318    0.5302 C   0  0  0  0  0  0  0  0  0  0  0  0
    0.9028    0.9862    0.8789 C   0  0  0  0  0  0  0  0  0  0  0  0
    3.2401   -1.6833    1.2304 C   0  0  0  0  0  0  0  0  0  0  0  0
    4.9916    1.3835   -1.7926 H   0  0  0  0  0  0  0  0  0  0  0  0
    4.6213    2.5179    0.3999 H   0  0  0  0  0  0  0  0  0  0  0  0
    3.3867    0.4344    1.4084 H   0  0  0  0  0  0  0  0  0  0  0  0
    1.5452   -1.5715   -1.2836 H   0  0  0  0  0  0  0  0  0  0  0  0
   -0.7917   -1.1432   -1.8865 H   0  0  0  0  0  0  0  0  0  0  0  0
   -2.6545    1.8259   -0.8782 H   0  0  0  0  0  0  0  0  0  0  0  0
   -2.7206    0.3258   -1.8412 H   0  0  0  0  0  0  0  0  0  0  0  0
   -3.1883    0.4794    1.2212 H   0  0  0  0  0  0  0  0  0  0  0  0
   -2.3773   -1.7608    0.5218 H   0  0  0  0  0  0  0  0  0  0  0  0
   -3.6113   -1.8284   -0.7981 H   0  0  0  0  0  0  0  0  0  0  0  0
   -4.1192   -1.8395    0.9360 H   0  0  0  0  0  0  0  0  0  0  0  0
   -5.2249    0.2241   -1.0854 H   0  0  0  0  0  0  0  0  0  0  0  0
   -5.5923    0.1526    0.6831 H   0  0  0  0  0  0  0  0  0  0  0  0
   -4.9666    1.6747   -0.0383 H   0  0  0  0  0  0  0  0  0  0  0  0
   -0.9753    2.0130    1.0435 H   0  0  0  0  0  0  0  0  0  0  0  0
    1.3610    1.5866    1.6549 H   0  0  0  0  0  0  0  0  0  0  0  0
    2.9682   -2.4781    0.5037 H   0  0  0  0  0  0  0  0  0  0  0  0
    4.2936   -1.8373    1.5484 H   0  0  0  0  0  0  0  0  0  0  0  0
    2.5892   -1.7834    2.1253 H   0  0  0  0  0  0  0  0  0  0  0  0
  1  2  2  0
  2  5  1  0
  2  3  1  0
  3  4  1  0
  5 16  1  0
  5  6  1  0
  6 15  2  0
  6  7  1  0
  7  8  2  0
  8  9  1  0
  9 10  1  0
  9 14  2  0
 10 11  1  0
 11 13  1  0
 11 12  1  0
 14 15  1  0
  3 17  1  0
  4 18  1  0
  5 19  1  1
  7 20  1  0
  8 21  1  0
 10 22  1  0
 10 23  1  0
 11 24  1  0
 12 25  1  0
 12 26  1  0
 12 27  1  0
 13 28  1  0
 13 29  1  0
 13 30  1  0
 14 31  1  0
 15 32  1  0
 16 33  1  0
 16 34  1  0
 16 35  1  0
M  END
$$$$
