CC(Nc1cc(C)ccc1)=O
     RDKit          3D

 22 22  0  0  0  0  0  0  0  0999 V2000
    3.8731    0.7074    0.1740 C   0  0  0  0  0  0  0  0  0  0  0  0
    2.4154    0.5496    0.4654 C   0  0  0  0  0  0  0  0  0  0  0  0
    1.6748   -0.5408   -0.1064 N   0  0  0  0  0  0  0  0  0  0  0  0
    0.2416   -0.6517   -0.0604 C   0  0  0  0  0  0  0  0  0  0  0  0
   -0.5859    0.4832   -0.1507 C   0  0  0  0  0  0  0  0  0  0  0  0
   -1.9834    0.3505   -0.1172 C   0  0  0  0  0  0  0  0  0  0  0  0
   -2.8597    1.5609   -0.2488 C   0  0  0  0  0  0  0  0  0  0  0  0
   -2.5541   -0.9284   -0.0386 C   0  0  0  0  0  0  0  0  0  0  0  0
   -1.7373   -2.0593    0.0275 C   0  0  0  0  0  0  0  0  0  0  0  0
   -0.3471   -1.9229    0.0119 C   0  0  0  0  0  0  0  0  0  0  0  0
    1.8573    1.3649    1.2481 O   0  0  0  0  0  0  0  0  0  0  0  0
    4.4516    0.6314    1.1183 H   0  0  0  0  0  0  0  0  0  0  0  0
    4.0539    1.7016   -0.2854 H   0  0  0  0  0  0  0  0  0  0  0  0
    4.2256   -0.0779   -0.5269 H   0  0  0  0  0  0  0  0  0  0  0  0
    2.2145   -1.3446   -0.5003 H   0  0  0  0  0  0  0  0  0  0  0  0
   -0.1499    1.4664   -0.2724 H   0  0  0  0  0  0  0  0  0  0  0  0
   -2.3727    2.4479    0.2096 H   0  0  0  0  0  0  0  0  0  0  0  0
   -3.0477    1.7655   -1.3234 H   0  0  0  0  0  0  0  0  0  0  0  0
   -3.8315    1.3998    0.2649 H   0  0  0  0  0  0  0  0  0  0  0  0
   -3.6302   -1.0503   -0.0362 H   0  0  0  0  0  0  0  0  0  0  0  0
   -2.1825   -3.0442    0.0857 H   0  0  0  0  0  0  0  0  0  0  0  0
    0.2739   -2.8086    0.0614 H   0  0  0  0  0  0  0  0  0  0  0  0
  1  2  1  0
  2  3  1  0
  2 11  2  0
  3  4  1  0
  4 10  2  0
  4  5  1  0
  5  6  2  0
  6  7  1  0
  6  8  1  0
  8  9  2  0
  9 10  1  0
  1 12  1  0
  1 13  1  0
  1 14  1  0
  3 15  1  0
  5 16  1  0
  7 17  1  0
  7 18  1  0
  7 19  1  0
  8 20  1  0
  9 21  1  0
 10 22  1  0
M  END
$$$$
