CC(C)Cc1ccccc1
     RDKit          3D

 24 24  0  0  0  0  0  0  0  0999 V2000
   -1.5642   -0.1027   -1.5348 C   0  0  0  0  0  0  0  0  0  0  0  0
   -1.6746   -0.3317   -0.0201 C   0  0  0  0  0  0  0  0  0  0  0  0
   -3.1196   -0.1060    0.4410 C   0  0  0  0  0  0  0  0  0  0  0  0
   -0.7162    0.5928    0.7619 C   0  0  0  0  0  0  0  0  0  0  0  0
    0.7338    0.2878    0.4744 C   0  0  0  0  0  0  0  0  0  0  0  0
    1.5277    1.2046   -0.2361 C   0  0  0  0  0  0  0  0  0  0  0  0
    2.8708    0.9179   -0.4994 C   0  0  0  0  0  0  0  0  0  0  0  0
    3.4322   -0.2812   -0.0524 C   0  0  0  0  0  0  0  0  0  0  0  0
    2.6519   -1.1953    0.6604 C   0  0  0  0  0  0  0  0  0  0  0  0
    1.3083   -0.9131    0.9256 C   0  0  0  0  0  0  0  0  0  0  0  0
   -2.2757   -0.7628   -2.0755 H   0  0  0  0  0  0  0  0  0  0  0  0
   -0.5408   -0.3455   -1.8907 H   0  0  0  0  0  0  0  0  0  0  0  0
   -1.7921    0.9547   -1.7893 H   0  0  0  0  0  0  0  0  0  0  0  0
   -1.4162   -1.3925    0.1931 H   0  0  0  0  0  0  0  0  0  0  0  0
   -3.2120   -0.3134    1.5285 H   0  0  0  0  0  0  0  0  0  0  0  0
   -3.4342    0.9422    0.2474 H   0  0  0  0  0  0  0  0  0  0  0  0
   -3.8068   -0.7924   -0.0984 H   0  0  0  0  0  0  0  0  0  0  0  0
   -0.9477    1.6533    0.5168 H   0  0  0  0  0  0  0  0  0  0  0  0
   -0.8854    0.4720    1.8545 H   0  0  0  0  0  0  0  0  0  0  0  0
    1.1068    2.1366   -0.5924 H   0  0  0  0  0  0  0  0  0  0  0  0
    3.4766    1.6256   -1.0506 H   0  0  0  0  0  0  0  0  0  0  0  0
    4.4720   -0.5012   -0.2569 H   0  0  0  0  0  0  0  0  0  0  0  0
    3.0885   -2.1223    1.0090 H   0  0  0  0  0  0  0  0  0  0  0  0
    0.7168   -1.6277    1.4843 H   0  0  0  0  0  0  0  0  0  0  0  0
  1  2  1  0
  2  3  1  0
  2  4  1  0
  4  5  1  0
  5 10  2  0
  5  6  1  0
  6  7  2  0
  7  8  1  0
  8  9  2  0
  9 10  1  0
  1 11  1  0
  1 12  1  0
  1 13  1  0
  2 14  1  0
  3 15  1  0
  3 16  1  0
  3 17  1  0
  4 18  1  0
  4 19  1  0
  6 20  1  0
  7 21  1  0
  8 22  1  0
  9 23  1  0
 10 24  1  0
M  END
$$$$
