CC(Nc1ccc(Cl)cc1)=O
     RDKit          3D

 19 19  0  0  0  0  0  0  0  0999 V2000
   -3.5436    0.3218   -0.0536 C   0  0  0  0  0  0  0  0  0  0  0  0
   -2.1372   -0.0745   -0.3654 C   0  0  0  0  0  0  0  0  0  0  0  0
   -1.0467    0.6275    0.2508 N   0  0  0  0  0  0  0  0  0  0  0  0
    0.3283    0.2140    0.1714 C   0  0  0  0  0  0  0  0  0  0  0  0
    0.6880   -1.1467    0.1638 C   0  0  0  0  0  0  0  0  0  0  0  0
    2.0346   -1.5203    0.1106 C   0  0  0  0  0  0  0  0  0  0  0  0
    3.0337   -0.5426    0.0780 C   0  0  0  0  0  0  0  0  0  0  0  0
    4.7221   -1.0138    0.0134 Cl  0  0  0  0  0  0  0  0  0  0  0  0
    2.6852    0.8111    0.1083 C   0  0  0  0  0  0  0  0  0  0  0  0
    1.3397    1.1874    0.1626 C   0  0  0  0  0  0  0  0  0  0  0  0
   -1.9225   -0.9983   -1.1960 O   0  0  0  0  0  0  0  0  0  0  0  0
   -3.7021    1.3836   -0.3352 H   0  0  0  0  0  0  0  0  0  0  0  0
   -3.7303    0.2001    1.0337 H   0  0  0  0  0  0  0  0  0  0  0  0
   -4.2633   -0.3109   -0.6156 H   0  0  0  0  0  0  0  0  0  0  0  0
   -1.2590    1.5405    0.7136 H   0  0  0  0  0  0  0  0  0  0  0  0
   -0.0653   -1.9203    0.2259 H   0  0  0  0  0  0  0  0  0  0  0  0
    2.3002   -2.5698    0.1040 H   0  0  0  0  0  0  0  0  0  0  0  0
    3.4551    1.5720    0.0920 H   0  0  0  0  0  0  0  0  0  0  0  0
    1.0832    2.2391    0.1876 H   0  0  0  0  0  0  0  0  0  0  0  0
  1  2  1  0
  2  3  1  0
  2 11  2  0
  3  4  1  0
  4 10  2  0
  4  5  1  0
  5  6  2  0
  6  7  1  0
  7  9  2  0
  7  8  1  0
  9 10  1  0
  1 12  1  0
  1 13  1  0
  1 14  1  0
  3 15  1  0
  5 16  1  0
  6 17  1  0
  9 18  1  0
 10 19  1  0
M  END
$$$$
