Fc1ccc(F)cc1
     RDKit          3D

 12 12  0  0  0  0  0  0  0  0999 V2000
   -2.7166   -0.4596   -0.0046 F   0  0  0  0  0  0  0  0  0  0  0  0
   -1.3798   -0.2334   -0.0023 C   0  0  0  0  0  0  0  0  0  0  0  0
   -0.4876   -1.3114   -0.0069 C   0  0  0  0  0  0  0  0  0  0  0  0
    0.8918   -1.0780   -0.0046 C   0  0  0  0  0  0  0  0  0  0  0  0
    1.3798    0.2334    0.0023 C   0  0  0  0  0  0  0  0  0  0  0  0
    2.7166    0.4596    0.0046 F   0  0  0  0  0  0  0  0  0  0  0  0
    0.4876    1.3114    0.0069 C   0  0  0  0  0  0  0  0  0  0  0  0
   -0.8918    1.0780    0.0046 C   0  0  0  0  0  0  0  0  0  0  0  0
   -0.8635   -2.3264   -0.0123 H   0  0  0  0  0  0  0  0  0  0  0  0
    1.5807   -1.9129   -0.0081 H   0  0  0  0  0  0  0  0  0  0  0  0
    0.8635    2.3264    0.0123 H   0  0  0  0  0  0  0  0  0  0  0  0
   -1.5807    1.9129    0.0081 H   0  0  0  0  0  0  0  0  0  0  0  0
  1  2  1  0
  2  8  2  0
  2  3  1  0
  3  4  2  0
  4  5  1  0
  5  7  2  0
  5  6  1  0
  7  8  1  0
  3  9  1  0
  4 10  1  0
  7 11  1  0
  8 12  1  0
M  END
$$$$
