CC(N)CC(O)=O
     RDKit          3D

 16 15  0  0  1  0  0  0  0  0999 V2000
   -1.2932    0.7030   -0.6268 C   0  0  0  0  0  0  0  0  0  0  0  0
   -0.7385   -0.4289    0.2462 C   0  0  1  0  0  0  0  0  0  0  0  0
   -1.3330   -1.6997   -0.1739 N   0  0  0  0  0  0  0  0  0  0  0  0
    0.8031   -0.4994    0.1769 C   0  0  0  0  0  0  0  0  0  0  0  0
    1.4492    0.7111    0.7806 C   0  0  0  0  0  0  0  0  0  0  0  0
    2.2179    1.5557   -0.0141 O   0  0  0  0  0  0  0  0  0  0  0  0
    1.3045    0.9606    2.0074 O   0  0  0  0  0  0  0  0  0  0  0  0
   -0.9855    0.5664   -1.6857 H   0  0  0  0  0  0  0  0  0  0  0  0
   -0.9264    1.6878   -0.2678 H   0  0  0  0  0  0  0  0  0  0  0  0
   -2.4028    0.7087   -0.5758 H   0  0  0  0  0  0  0  0  0  0  0  0
   -1.0463   -0.2344    1.2983 H   0  0  0  0  0  0  0  0  0  0  0  0
   -1.0376   -2.4468    0.4961 H   0  0  0  0  0  0  0  0  0  0  0  0
   -0.9629   -1.9613   -1.1173 H   0  0  0  0  0  0  0  0  0  0  0  0
    1.1279   -0.6047   -0.8813 H   0  0  0  0  0  0  0  0  0  0  0  0
    1.1613   -1.3949    0.7292 H   0  0  0  0  0  0  0  0  0  0  0  0
    2.6621    2.3768    0.3790 H   0  0  0  0  0  0  0  0  0  0  0  0
  1  2  1  0
  2  4  1  0
  2  3  1  0
  4  5  1  0
  5  6  1  0
  5  7  2  0
  1  8  1  0
  1  9  1  0
  1 10  1  0
  2 11  1  1
  3 12  1  0
  3 13  1  0
  4 14  1  0
  4 15  1  0
  6 16  1  0
M  END
$$$$
