Clc1cc(Cl)ccc1
     RDKit          3D

 12 12  0  0  0  0  0  0  0  0999 V2000
   -2.2961   -2.1224    0.0370 Cl  0  0  0  0  0  0  0  0  0  0  0  0
   -1.0264   -0.9124    0.0153 C   0  0  0  0  0  0  0  0  0  0  0  0
    0.3169   -1.3055    0.0482 C   0  0  0  0  0  0  0  0  0  0  0  0
    1.3303   -0.3397    0.0309 C   0  0  0  0  0  0  0  0  0  0  0  0
    3.0134   -0.8322    0.0721 Cl  0  0  0  0  0  0  0  0  0  0  0  0
    0.9992    1.0195   -0.0193 C   0  0  0  0  0  0  0  0  0  0  0  0
   -0.3428    1.4120   -0.0521 C   0  0  0  0  0  0  0  0  0  0  0  0
   -1.3553    0.4474   -0.0349 C   0  0  0  0  0  0  0  0  0  0  0  0
    0.5722   -2.3571    0.0870 H   0  0  0  0  0  0  0  0  0  0  0  0
    1.7789    1.7704   -0.0329 H   0  0  0  0  0  0  0  0  0  0  0  0
   -0.5979    2.4631   -0.0909 H   0  0  0  0  0  0  0  0  0  0  0  0
   -2.3924    0.7568   -0.0604 H   0  0  0  0  0  0  0  0  0  0  0  0
  1  2  1  0
  2  8  2  0
  2  3  1  0
  3  4  2  0
  4  6  1  0
  4  5  1  0
  6  7  2  0
  7  8  1  0
  3  9  1  0
  6 10  1  0
  7 11  1  0
  8 12  1  0
M  END
$$$$
