ClC(Cl)CCC
     RDKit          3D

 14 13  0  0  0  0  0  0  0  0999 V2000
    3.0738   -0.2829   -1.3031 Cl  0  0  0  0  0  0  0  0  0  0  0  0
    1.9000    0.1837   -0.0463 C   0  0  0  0  0  0  0  0  0  0  0  0
    2.3860   -0.5818    1.4910 Cl  0  0  0  0  0  0  0  0  0  0  0  0
    0.4917   -0.2556   -0.4634 C   0  0  0  0  0  0  0  0  0  0  0  0
   -0.5863    0.3034    0.4758 C   0  0  0  0  0  0  0  0  0  0  0  0
   -1.9822   -0.1100    0.0185 C   0  0  0  0  0  0  0  0  0  0  0  0
    1.9378    1.2878    0.0700 H   0  0  0  0  0  0  0  0  0  0  0  0
    0.2935    0.1132   -1.4939 H   0  0  0  0  0  0  0  0  0  0  0  0
    0.4399   -1.3666   -0.4783 H   0  0  0  0  0  0  0  0  0  0  0  0
   -0.4252   -0.0739    1.5085 H   0  0  0  0  0  0  0  0  0  0  0  0
   -0.5290    1.4136    0.4940 H   0  0  0  0  0  0  0  0  0  0  0  0
   -2.1861    0.2809   -1.0011 H   0  0  0  0  0  0  0  0  0  0  0  0
   -2.0739   -1.2171    0.0124 H   0  0  0  0  0  0  0  0  0  0  0  0
   -2.7400    0.3053    0.7157 H   0  0  0  0  0  0  0  0  0  0  0  0
  1  2  1  0
  2  4  1  0
  2  3  1  0
  4  5  1  0
  5  6  1  0
  2  7  1  0
  4  8  1  0
  4  9  1  0
  5 10  1  0
  5 11  1  0
  6 12  1  0
  6 13  1  0
  6 14  1  0
M  END
$$$$
