CCCCCCl
     RDKit          3D

 17 16  0  0  0  0  0  0  0  0999 V2000
   -2.1146   -0.0160   -0.7739 C   0  0  0  0  0  0  0  0  0  0  0  0
   -1.4397   -0.0281    0.5975 C   0  0  0  0  0  0  0  0  0  0  0  0
    0.0159   -0.5168    0.5402 C   0  0  0  0  0  0  0  0  0  0  0  0
    0.9527    0.4997   -0.1334 C   0  0  0  0  0  0  0  0  0  0  0  0
    2.4132    0.0426   -0.0973 C   0  0  0  0  0  0  0  0  0  0  0  0
    3.0819    0.1305    1.5549 Cl  0  0  0  0  0  0  0  0  0  0  0  0
   -3.1910    0.2282   -0.6525 H   0  0  0  0  0  0  0  0  0  0  0  0
   -1.6589    0.7538   -1.4302 H   0  0  0  0  0  0  0  0  0  0  0  0
   -2.0313   -1.0125   -1.2575 H   0  0  0  0  0  0  0  0  0  0  0  0
   -1.4849    0.9888    1.0445 H   0  0  0  0  0  0  0  0  0  0  0  0
   -2.0132   -0.7117    1.2605 H   0  0  0  0  0  0  0  0  0  0  0  0
    0.3559   -0.6908    1.5838 H   0  0  0  0  0  0  0  0  0  0  0  0
    0.0649   -1.4902    0.0045 H   0  0  0  0  0  0  0  0  0  0  0  0
    0.8651    1.4899    0.3647 H   0  0  0  0  0  0  0  0  0  0  0  0
    0.6598    0.6220   -1.1976 H   0  0  0  0  0  0  0  0  0  0  0  0
    3.0191    0.7071   -0.7488 H   0  0  0  0  0  0  0  0  0  0  0  0
    2.5053   -0.9964   -0.4796 H   0  0  0  0  0  0  0  0  0  0  0  0
  1  2  1  0
  2  3  1  0
  3  4  1  0
  4  5  1  0
  5  6  1  0
  1  7  1  0
  1  8  1  0
  1  9  1  0
  2 10  1  0
  2 11  1  0
  3 12  1  0
  3 13  1  0
  4 14  1  0
  4 15  1  0
  5 16  1  0
  5 17  1  0
M  END
$$$$
