ClCCCCCC
     RDKit          3D

 20 19  0  0  0  0  0  0  0  0999 V2000
   -3.8761   -0.0646   -0.0108 Cl  0  0  0  0  0  0  0  0  0  0  0  0
   -2.4875    0.2757   -1.0788 C   0  0  0  0  0  0  0  0  0  0  0  0
   -1.2546    0.6966   -0.2752 C   0  0  0  0  0  0  0  0  0  0  0  0
   -0.6740   -0.4681    0.5446 C   0  0  0  0  0  0  0  0  0  0  0  0
    0.6220   -0.0715    1.2831 C   0  0  0  0  0  0  0  0  0  0  0  0
    1.9012   -0.5814    0.5986 C   0  0  0  0  0  0  0  0  0  0  0  0
    2.1593    0.0778   -0.7545 C   0  0  0  0  0  0  0  0  0  0  0  0
   -2.2634   -0.6227   -1.6925 H   0  0  0  0  0  0  0  0  0  0  0  0
   -2.7744    1.1008   -1.7643 H   0  0  0  0  0  0  0  0  0  0  0  0
   -0.4905    1.0741   -0.9857 H   0  0  0  0  0  0  0  0  0  0  0  0
   -1.5277    1.5346    0.4028 H   0  0  0  0  0  0  0  0  0  0  0  0
   -1.4280   -0.7746    1.3020 H   0  0  0  0  0  0  0  0  0  0  0  0
   -0.4971   -1.3476   -0.1127 H   0  0  0  0  0  0  0  0  0  0  0  0
    0.5924   -0.5208    2.3000 H   0  0  0  0  0  0  0  0  0  0  0  0
    0.6831    1.0296    1.4292 H   0  0  0  0  0  0  0  0  0  0  0  0
    1.8502   -1.6846    0.4701 H   0  0  0  0  0  0  0  0  0  0  0  0
    2.7646   -0.3624    1.2637 H   0  0  0  0  0  0  0  0  0  0  0  0
    3.1634   -0.2192   -1.1240 H   0  0  0  0  0  0  0  0  0  0  0  0
    2.1299    1.1842   -0.6610 H   0  0  0  0  0  0  0  0  0  0  0  0
    1.4070   -0.2560   -1.4990 H   0  0  0  0  0  0  0  0  0  0  0  0
  1  2  1  0
  2  3  1  0
  3  4  1  0
  4  5  1  0
  5  6  1  0
  6  7  1  0
  2  8  1  0
  2  9  1  0
  3 10  1  0
  3 11  1  0
  4 12  1  0
  4 13  1  0
  5 14  1  0
  5 15  1  0
  6 16  1  0
  6 17  1  0
  7 18  1  0
  7 19  1  0
  7 20  1  0
M  END
$$$$
