COCCC
     RDKit          3D

 15 14  0  0  0  0  0  0  0  0999 V2000
    2.5238    0.1130    0.3832 C   0  0  0  0  0  0  0  0  0  0  0  0
    1.2520    0.2111    0.9837 O   0  0  0  0  0  0  0  0  0  0  0  0
    0.2559   -0.0209    0.0106 C   0  0  0  0  0  0  0  0  0  0  0  0
   -1.1184    0.0874    0.6700 C   0  0  0  0  0  0  0  0  0  0  0  0
   -2.2396   -0.1548   -0.3367 C   0  0  0  0  0  0  0  0  0  0  0  0
    3.2957    0.2973    1.1584 H   0  0  0  0  0  0  0  0  0  0  0  0
    2.6553    0.8814   -0.4110 H   0  0  0  0  0  0  0  0  0  0  0  0
    2.6980   -0.9060   -0.0286 H   0  0  0  0  0  0  0  0  0  0  0  0
    0.3631   -1.0423   -0.4229 H   0  0  0  0  0  0  0  0  0  0  0  0
    0.3205    0.7377   -0.8037 H   0  0  0  0  0  0  0  0  0  0  0  0
   -1.2382    1.1011    1.1106 H   0  0  0  0  0  0  0  0  0  0  0  0
   -1.1961   -0.6618    1.4877 H   0  0  0  0  0  0  0  0  0  0  0  0
   -2.1538   -1.1729   -0.7727 H   0  0  0  0  0  0  0  0  0  0  0  0
   -3.2220   -0.0690    0.1738 H   0  0  0  0  0  0  0  0  0  0  0  0
   -2.1961    0.5987   -1.1518 H   0  0  0  0  0  0  0  0  0  0  0  0
  1  2  1  0
  2  3  1  0
  3  4  1  0
  4  5  1  0
  1  6  1  0
  1  7  1  0
  1  8  1  0
  3  9  1  0
  3 10  1  0
  4 11  1  0
  4 12  1  0
  5 13  1  0
  5 14  1  0
  5 15  1  0
M  END
$$$$
