Clc1ccc(Cl)c(c2ccccc2)c1Cl
     RDKit          3D

 22 23  0  0  0  0  0  0  0  0999 V2000
    3.9176   -0.8599    2.3484 Cl  0  0  0  0  0  0  0  0  0  0  0  0
    2.9170   -0.4376    0.9642 C   0  0  0  0  0  0  0  0  0  0  0  0
    3.5429   -0.1589   -0.2534 C   0  0  0  0  0  0  0  0  0  0  0  0
    2.7850    0.1835   -1.3724 C   0  0  0  0  0  0  0  0  0  0  0  0
    1.3917    0.2509   -1.2885 C   0  0  0  0  0  0  0  0  0  0  0  0
    0.4854    0.6555   -2.7438 Cl  0  0  0  0  0  0  0  0  0  0  0  0
    0.7438   -0.0284   -0.0664 C   0  0  0  0  0  0  0  0  0  0  0  0
   -0.7302    0.0403    0.0250 C   0  0  0  0  0  0  0  0  0  0  0  0
   -1.4845   -1.1335    0.1821 C   0  0  0  0  0  0  0  0  0  0  0  0
   -2.8786   -1.0664    0.2677 C   0  0  0  0  0  0  0  0  0  0  0  0
   -3.5261    0.1705    0.1963 C   0  0  0  0  0  0  0  0  0  0  0  0
   -2.7804    1.3425    0.0392 C   0  0  0  0  0  0  0  0  0  0  0  0
   -1.3861    1.2797   -0.0463 C   0  0  0  0  0  0  0  0  0  0  0  0
    1.5153   -0.3740    1.0664 C   0  0  0  0  0  0  0  0  0  0  0  0
    0.7373   -0.6935    2.6199 Cl  0  0  0  0  0  0  0  0  0  0  0  0
    4.6214   -0.2075   -0.3341 H   0  0  0  0  0  0  0  0  0  0  0  0
    3.2840    0.3929   -2.3101 H   0  0  0  0  0  0  0  0  0  0  0  0
   -0.9927   -2.0971    0.2355 H   0  0  0  0  0  0  0  0  0  0  0  0
   -3.4571   -1.9731    0.3887 H   0  0  0  0  0  0  0  0  0  0  0  0
   -4.6052    0.2208    0.2625 H   0  0  0  0  0  0  0  0  0  0  0  0
   -3.2828    2.2996   -0.0156 H   0  0  0  0  0  0  0  0  0  0  0  0
   -0.8174    2.1938   -0.1653 H   0  0  0  0  0  0  0  0  0  0  0  0
  1  2  1  0
  2  3  2  0
  2 14  1  0
  3  4  1  0
  4  5  2  0
  5  7  1  0
  5  6  1  0
  7  8  1  0
  7 14  2  0
  8 13  1  0
  8  9  2  0
  9 10  1  0
 10 11  2  0
 11 12  1  0
 12 13  2  0
 14 15  1  0
  3 16  1  0
  4 17  1  0
  9 18  1  0
 10 19  1  0
 11 20  1  0
 12 21  1  0
 13 22  1  0
M  END
$$$$
