BrC(Br)(Br)Br
     RDKit          3D

  5  4  0  0  0  0  0  0  0  0999 V2000
    1.8955   -0.3699   -0.0918 Br  0  0  0  0  0  0  0  0  0  0  0  0
    0.0000    0.0000    0.0000 C   0  0  0  0  0  0  0  0  0  0  0  0
   -0.3222    1.8408   -0.4959 Br  0  0  0  0  0  0  0  0  0  0  0  0
   -0.6288   -0.3012    1.8033 Br  0  0  0  0  0  0  0  0  0  0  0  0
   -0.9445   -1.1697   -1.2157 Br  0  0  0  0  0  0  0  0  0  0  0  0
  1  2  1  0
  2  3  1  0
  2  4  1  0
  2  5  1  0
M  END
$$$$
