ClC(=C(C=C(Cl)Cl)Cl)Cl
     RDKit          3D

 10  9  0  0  0  0  0  0  0  0999 V2000
   -3.1412    0.7086    0.6074 Cl  0  0  0  0  0  0  0  0  0  0  0  0
   -1.5782    0.3679   -0.1228 C   0  0  0  0  0  0  0  0  0  0  0  0
   -0.6618   -0.3851    0.5096 C   0  0  0  0  0  0  0  0  0  0  0  0
    0.6489   -0.6924   -0.0892 C   0  0  0  0  0  0  0  0  0  0  0  0
    1.6150    0.2197   -0.2401 C   0  0  0  0  0  0  0  0  0  0  0  0
    1.4286    1.8883    0.2879 Cl  0  0  0  0  0  0  0  0  0  0  0  0
    3.1544   -0.2607   -0.9287 Cl  0  0  0  0  0  0  0  0  0  0  0  0
   -1.0203   -1.1347    2.0601 Cl  0  0  0  0  0  0  0  0  0  0  0  0
   -1.2993    1.0126   -1.7376 Cl  0  0  0  0  0  0  0  0  0  0  0  0
    0.8537   -1.7240   -0.3466 H   0  0  0  0  0  0  0  0  0  0  0  0
  1  2  1  0
  2  3  2  0
  2  9  1  0
  3  4  1  0
  3  8  1  0
  4  5  2  0
  5  6  1  0
  5  7  1  0
  4 10  1  0
M  END
$$$$
