ClC(Cl)(Cl)Cl
     RDKit          3D

  5  4  0  0  0  0  0  0  0  0999 V2000
   -1.1869   -1.3160   -0.1436 Cl  0  0  0  0  0  0  0  0  0  0  0  0
   -0.0000    0.0000    0.0000 C   0  0  0  0  0  0  0  0  0  0  0  0
   -0.8264    1.5649   -0.1716 Cl  0  0  0  0  0  0  0  0  0  0  0  0
    0.7872   -0.0831    1.5920 Cl  0  0  0  0  0  0  0  0  0  0  0  0
    1.2261   -0.1658   -1.2768 Cl  0  0  0  0  0  0  0  0  0  0  0  0
  1  2  1  0
  2  3  1  0
  2  4  1  0
  2  5  1  0
M  END
$$$$
