CC(C2C(COC(C)=O)=O)(CC1)C(CC2)C(CCC3=CC4=O)C1C3(CC4)C
     RDKit          3D

 59 62  0  0  1  0  0  0  0  0999 V2000
    0.9089    1.9619    0.3249 C   0  0  0  0  0  0  0  0  0  0  0  0
    1.1188    0.4145    0.2371 C   0  0  1  0  0  0  0  0  0  0  0  0
    2.5959    0.0831   -0.0785 C   0  0  2  0  0  0  0  0  0  0  0  0
    3.6244    0.8621    0.7228 C   0  0  0  0  0  0  0  0  0  0  0  0
    4.3196    0.2320    1.8986 C   0  0  0  0  0  0  0  0  0  0  0  0
    5.7251    0.1634    1.6691 O   0  0  0  0  0  0  0  0  0  0  0  0
    6.3087   -0.6953    0.7305 C   0  0  0  0  0  0  0  0  0  0  0  0
    7.7839   -0.6636    0.5206 C   0  0  0  0  0  0  0  0  0  0  0  0
    5.6003   -1.4859    0.0497 O   0  0  0  0  0  0  0  0  0  0  0  0
    3.8977    2.0159    0.4248 O   0  0  0  0  0  0  0  0  0  0  0  0
    0.5655   -0.2795    1.5007 C   0  0  0  0  0  0  0  0  0  0  0  0
   -0.9670   -0.1079    1.5939 C   0  0  0  0  0  0  0  0  0  0  0  0
    0.4366   -0.2249   -0.9775 C   0  0  2  0  0  0  0  0  0  0  0  0
    1.2828    0.2097   -2.1694 C   0  0  0  0  0  0  0  0  0  0  0  0
    2.7168    0.2756   -1.6099 C   0  0  0  0  0  0  0  0  0  0  0  0
   -1.0901    0.0054   -1.0209 C   0  0  1  0  0  0  0  0  0  0  0  0
   -1.7023   -0.6801   -2.2798 C   0  0  0  0  0  0  0  0  0  0  0  0
   -3.1143   -1.2474   -2.0657 C   0  0  0  0  0  0  0  0  0  0  0  0
   -3.8684   -0.4175   -1.0641 C   0  0  0  0  0  0  0  0  0  0  0  0
   -4.9956    0.2132   -1.4344 C   0  0  0  0  0  0  0  0  0  0  0  0
   -5.6783    1.1591   -0.5417 C   0  0  0  0  0  0  0  0  0  0  0  0
   -6.7631    1.6841   -0.9076 O   0  0  0  0  0  0  0  0  0  0  0  0
   -1.7280   -0.5517    0.2993 C   0  0  2  0  0  0  0  0  0  0  0  0
   -3.2898   -0.2838    0.3479 C   0  0  1  0  0  0  0  0  0  0  0  0
   -3.6234    1.1377    0.9019 C   0  0  0  0  0  0  0  0  0  0  0  0
   -5.1165    1.4894    0.8068 C   0  0  0  0  0  0  0  0  0  0  0  0
   -3.9578   -1.3575    1.2409 C   0  0  0  0  0  0  0  0  0  0  0  0
   -0.1557    2.2583    0.3514 H   0  0  0  0  0  0  0  0  0  0  0  0
    1.3700    2.4889   -0.5358 H   0  0  0  0  0  0  0  0  0  0  0  0
    1.3700    2.3574    1.2545 H   0  0  0  0  0  0  0  0  0  0  0  0
    2.7591   -1.0014    0.1212 H   0  0  0  0  0  0  0  0  0  0  0  0
    4.1352    0.8611    2.7946 H   0  0  0  0  0  0  0  0  0  0  0  0
    3.9217   -0.7827    2.1162 H   0  0  0  0  0  0  0  0  0  0  0  0
    8.2690   -0.0473    1.3064 H   0  0  0  0  0  0  0  0  0  0  0  0
    8.0080   -0.2250   -0.4739 H   0  0  0  0  0  0  0  0  0  0  0  0
    8.1930   -1.6946    0.5683 H   0  0  0  0  0  0  0  0  0  0  0  0
    0.8046   -1.3660    1.4851 H   0  0  0  0  0  0  0  0  0  0  0  0
    1.0430    0.1493    2.4086 H   0  0  0  0  0  0  0  0  0  0  0  0
   -1.3286   -0.7089    2.4548 H   0  0  0  0  0  0  0  0  0  0  0  0
   -1.1698    0.9507    1.8398 H   0  0  0  0  0  0  0  0  0  0  0  0
    0.5739   -1.3334   -0.9074 H   0  0  0  0  0  0  0  0  0  0  0  0
    0.9576    1.2082   -2.5350 H   0  0  0  0  0  0  0  0  0  0  0  0
    1.2135   -0.5230   -3.0027 H   0  0  0  0  0  0  0  0  0  0  0  0
    3.1693    1.2559   -1.8748 H   0  0  0  0  0  0  0  0  0  0  0  0
    3.3451   -0.5304   -2.0485 H   0  0  0  0  0  0  0  0  0  0  0  0
   -1.3070    1.0901   -1.1026 H   0  0  0  0  0  0  0  0  0  0  0  0
   -1.7333    0.0638   -3.1062 H   0  0  0  0  0  0  0  0  0  0  0  0
   -1.0617   -1.5190   -2.6304 H   0  0  0  0  0  0  0  0  0  0  0  0
   -3.0416   -2.2860   -1.6762 H   0  0  0  0  0  0  0  0  0  0  0  0
   -3.6380   -1.3040   -3.0455 H   0  0  0  0  0  0  0  0  0  0  0  0
   -5.3923    0.0797   -2.4340 H   0  0  0  0  0  0  0  0  0  0  0  0
   -1.5786   -1.6555    0.2505 H   0  0  0  0  0  0  0  0  0  0  0  0
   -3.0440    1.9026    0.3398 H   0  0  0  0  0  0  0  0  0  0  0  0
   -3.3452    1.2177    1.9741 H   0  0  0  0  0  0  0  0  0  0  0  0
   -5.2440    2.5759    1.0037 H   0  0  0  0  0  0  0  0  0  0  0  0
   -5.6899    0.9392    1.5826 H   0  0  0  0  0  0  0  0  0  0  0  0
   -5.0650   -1.2874    1.1998 H   0  0  0  0  0  0  0  0  0  0  0  0
   -3.6436   -1.2443    2.2996 H   0  0  0  0  0  0  0  0  0  0  0  0
   -3.6849   -2.3799    0.9020 H   0  0  0  0  0  0  0  0  0  0  0  0
  2  1  1  1
  2 11  1  0
  2 13  1  0
  2  3  1  0
  3 15  1  0
  3  4  1  0
  4  5  1  0
  4 10  2  0
  5  6  1  0
  6  7  1  0
  7  8  1  0
  7  9  2  0
 11 12  1  0
 12 23  1  0
 13 14  1  0
 13 16  1  0
 14 15  1  0
 16 17  1  0
 16 23  1  0
 17 18  1  0
 18 19  1  0
 19 20  2  0
 19 24  1  0
 20 21  1  0
 21 26  1  0
 21 22  2  0
 23 24  1  0
 24 27  1  1
 24 25  1  0
 25 26  1  0
  1 28  1  0
  1 29  1  0
  1 30  1  0
  3 31  1  6
  5 32  1  0
  5 33  1  0
  8 34  1  0
  8 35  1  0
  8 36  1  0
 11 37  1  0
 11 38  1  0
 12 39  1  0
 12 40  1  0
 13 41  1  1
 14 42  1  0
 14 43  1  0
 15 44  1  0
 15 45  1  0
 16 46  1  6
 17 47  1  0
 17 48  1  0
 18 49  1  0
 18 50  1  0
 20 51  1  0
 23 52  1  6
 25 53  1  0
 25 54  1  0
 26 55  1  0
 26 56  1  0
 27 57  1  0
 27 58  1  0
 27 59  1  0
M  END
$$$$
