C1(CN2CCC1CC2(C(c3ccnc4c3cc(cc4)OC)(O)))C=C
     RDKit          3D

 48 51  0  0  1  0  0  0  0  0999 V2000
    3.1578    0.1968    0.8197 C   0  0  2  0  0  0  0  0  0  0  0  0
    3.1493   -0.6086   -0.5143 C   0  0  0  0  0  0  0  0  0  0  0  0
    2.1307   -0.0622   -1.4462 N   0  0  0  0  0  0  0  0  0  0  0  0
    2.5233    1.3225   -1.8195 C   0  0  0  0  0  0  0  0  0  0  0  0
    2.5978    2.2433   -0.5767 C   0  0  0  0  0  0  0  0  0  0  0  0
    2.2247    1.4304    0.6774 C   0  0  1  0  0  0  0  0  0  0  0  0
    0.7907    0.9106    0.4443 C   0  0  0  0  0  0  0  0  0  0  0  0
    0.7936   -0.0720   -0.7789 C   0  0  1  0  0  0  0  0  0  0  0  0
   -0.3523    0.1219   -1.8316 C   0  0  1  0  0  0  0  0  0  0  0  0
   -1.4184   -0.9740   -1.7362 C   0  0  0  0  0  0  0  0  0  0  0  0
   -1.4044   -1.9790   -2.7223 C   0  0  0  0  0  0  0  0  0  0  0  0
   -2.3078   -3.0367   -2.6681 C   0  0  0  0  0  0  0  0  0  0  0  0
   -3.2097   -3.1120   -1.6610 N   0  0  0  0  0  0  0  0  0  0  0  0
   -3.2751   -2.1708   -0.6847 C   0  0  0  0  0  0  0  0  0  0  0  0
   -2.3867   -1.0635   -0.6937 C   0  0  0  0  0  0  0  0  0  0  0  0
   -2.5143   -0.0999    0.3281 C   0  0  0  0  0  0  0  0  0  0  0  0
   -3.4705   -0.2367    1.3414 C   0  0  0  0  0  0  0  0  0  0  0  0
   -4.3266   -1.3504    1.3373 C   0  0  0  0  0  0  0  0  0  0  0  0
   -4.2298   -2.3059    0.3273 C   0  0  0  0  0  0  0  0  0  0  0  0
   -3.5366    0.7568    2.3299 O   0  0  0  0  0  0  0  0  0  0  0  0
   -4.4581    0.7527    3.4151 C   0  0  0  0  0  0  0  0  0  0  0  0
   -0.9302    1.4012   -1.7758 O   0  0  0  0  0  0  0  0  0  0  0  0
    4.5429    0.5406    1.3359 C   0  0  0  0  0  0  0  0  0  0  0  0
    5.5186    1.0726    0.5896 C   0  0  0  0  0  0  0  0  0  0  0  0
    2.7086   -0.4560    1.6025 H   0  0  0  0  0  0  0  0  0  0  0  0
    2.9268   -1.6783   -0.3045 H   0  0  0  0  0  0  0  0  0  0  0  0
    4.1428   -0.6115   -1.0114 H   0  0  0  0  0  0  0  0  0  0  0  0
    1.8003    1.7396   -2.5527 H   0  0  0  0  0  0  0  0  0  0  0  0
    3.5091    1.3072   -2.3345 H   0  0  0  0  0  0  0  0  0  0  0  0
    3.6042    2.6949   -0.4737 H   0  0  0  0  0  0  0  0  0  0  0  0
    1.8894    3.0925   -0.6975 H   0  0  0  0  0  0  0  0  0  0  0  0
    2.2608    2.0690    1.5873 H   0  0  0  0  0  0  0  0  0  0  0  0
    0.4305    0.3825    1.3548 H   0  0  0  0  0  0  0  0  0  0  0  0
    0.1282    1.7876    0.3006 H   0  0  0  0  0  0  0  0  0  0  0  0
    0.6515   -1.0919   -0.3493 H   0  0  0  0  0  0  0  0  0  0  0  0
    0.1277    0.0344   -2.8348 H   0  0  0  0  0  0  0  0  0  0  0  0
   -0.6839   -1.9571   -3.5304 H   0  0  0  0  0  0  0  0  0  0  0  0
   -2.2862   -3.8070   -3.4272 H   0  0  0  0  0  0  0  0  0  0  0  0
   -1.8960    0.7770    0.3546 H   0  0  0  0  0  0  0  0  0  0  0  0
   -5.0749   -1.4834    2.1067 H   0  0  0  0  0  0  0  0  0  0  0  0
   -4.9019   -3.1556    0.3319 H   0  0  0  0  0  0  0  0  0  0  0  0
   -5.5001    0.7737    3.0313 H   0  0  0  0  0  0  0  0  0  0  0  0
   -4.3010   -0.1472    4.0463 H   0  0  0  0  0  0  0  0  0  0  0  0
   -4.2903    1.6564    4.0362 H   0  0  0  0  0  0  0  0  0  0  0  0
   -1.4862    1.5044   -2.5922 H   0  0  0  0  0  0  0  0  0  0  0  0
    4.7612    0.3248    2.3781 H   0  0  0  0  0  0  0  0  0  0  0  0
    5.3864    1.2824   -0.4651 H   0  0  0  0  0  0  0  0  0  0  0  0
    6.4840    1.2839    1.0375 H   0  0  0  0  0  0  0  0  0  0  0  0
  1 23  1  0
  1  6  1  0
  1  2  1  0
  3  2  1  0
  3  4  1  0
  3  8  1  0
  4  5  1  0
  5  6  1  0
  6  7  1  0
  7  8  1  0
  8  9  1  0
  9 10  1  0
  9 22  1  0
 10 11  2  0
 10 15  1  0
 11 12  1  0
 12 13  2  0
 13 14  1  0
 14 19  1  0
 14 15  2  0
 15 16  1  0
 16 17  2  0
 17 18  1  0
 17 20  1  0
 18 19  2  0
 20 21  1  0
 23 24  2  3
  1 25  1  1
  2 26  1  0
  2 27  1  0
  4 28  1  0
  4 29  1  0
  5 30  1  0
  5 31  1  0
  6 32  1  1
  7 33  1  0
  7 34  1  0
  8 35  1  1
  9 36  1  6
 11 37  1  0
 12 38  1  0
 16 39  1  0
 18 40  1  0
 19 41  1  0
 21 42  1  0
 21 43  1  0
 21 44  1  0
 22 45  1  0
 23 46  1  0
 24 47  1  0
 24 48  1  0
M  END
$$$$
