OC(C(N)CCC(N)=O)=O
     RDKit          3D

 20 19  0  0  1  0  0  0  0  0999 V2000
    2.7030    0.6344   -0.9295 O   0  0  0  0  0  0  0  0  0  0  0  0
    1.8763   -0.4296   -0.5795 C   0  0  0  0  0  0  0  0  0  0  0  0
    0.8466   -0.2632    0.5090 C   0  0  1  0  0  0  0  0  0  0  0  0
    1.4987    0.0251    1.7879 N   0  0  0  0  0  0  0  0  0  0  0  0
   -0.1555    0.8606    0.1724 C   0  0  0  0  0  0  0  0  0  0  0  0
   -0.9960    0.5789   -1.0852 C   0  0  0  0  0  0  0  0  0  0  0  0
   -1.8895   -0.6161   -0.9159 C   0  0  0  0  0  0  0  0  0  0  0  0
   -2.9592   -0.5947    0.0294 N   0  0  0  0  0  0  0  0  0  0  0  0
   -1.7016   -1.6428   -1.6215 O   0  0  0  0  0  0  0  0  0  0  0  0
    1.9914   -1.5347   -1.1739 O   0  0  0  0  0  0  0  0  0  0  0  0
    3.3976    0.5340   -1.6598 H   0  0  0  0  0  0  0  0  0  0  0  0
    0.2827   -1.2157    0.6237 H   0  0  0  0  0  0  0  0  0  0  0  0
    2.0945    0.8803    1.6928 H   0  0  0  0  0  0  0  0  0  0  0  0
    2.1319   -0.7723    2.0292 H   0  0  0  0  0  0  0  0  0  0  0  0
    0.3959    1.8148    0.0222 H   0  0  0  0  0  0  0  0  0  0  0  0
   -0.8349    1.0145    1.0390 H   0  0  0  0  0  0  0  0  0  0  0  0
   -0.3268    0.4338   -1.9609 H   0  0  0  0  0  0  0  0  0  0  0  0
   -1.6305    1.4647   -1.3018 H   0  0  0  0  0  0  0  0  0  0  0  0
   -3.5713   -1.4318    0.1507 H   0  0  0  0  0  0  0  0  0  0  0  0
   -3.1533    0.2597    0.5969 H   0  0  0  0  0  0  0  0  0  0  0  0
  1  2  1  0
  2  3  1  0
  2 10  2  0
  3  5  1  0
  3  4  1  0
  5  6  1  0
  6  7  1  0
  7  8  1  0
  7  9  2  0
  1 11  1  0
  3 12  1  1
  4 13  1  0
  4 14  1  0
  5 15  1  0
  5 16  1  0
  6 17  1  0
  6 18  1  0
  8 19  1  0
  8 20  1  0
M  END
$$$$
