OC(CO)CO
     RDKit          3D

 14 13  0  0  0  0  0  0  0  0999 V2000
   -0.4091    1.4659    0.0207 O   0  0  0  0  0  0  0  0  0  0  0  0
   -0.1194    0.2561   -0.6320 C   0  0  0  0  0  0  0  0  0  0  0  0
   -0.8211   -0.9125    0.0790 C   0  0  0  0  0  0  0  0  0  0  0  0
   -2.2135   -0.7917   -0.0366 O   0  0  0  0  0  0  0  0  0  0  0  0
    1.4018    0.0511   -0.6689 C   0  0  0  0  0  0  0  0  0  0  0  0
    1.9354   -0.0281    0.6267 O   0  0  0  0  0  0  0  0  0  0  0  0
   -1.2868    1.7781   -0.3227 H   0  0  0  0  0  0  0  0  0  0  0  0
   -0.4755    0.2969   -1.6888 H   0  0  0  0  0  0  0  0  0  0  0  0
   -0.5195   -0.9572    1.1512 H   0  0  0  0  0  0  0  0  0  0  0  0
   -0.5175   -1.8696   -0.3968 H   0  0  0  0  0  0  0  0  0  0  0  0
   -2.5102   -0.1844    0.6905 H   0  0  0  0  0  0  0  0  0  0  0  0
    1.8799    0.8830   -1.2355 H   0  0  0  0  0  0  0  0  0  0  0  0
    1.6365   -0.8910   -1.2090 H   0  0  0  0  0  0  0  0  0  0  0  0
    2.0191    0.9035    0.9593 H   0  0  0  0  0  0  0  0  0  0  0  0
  1  2  1  0
  2  5  1  0
  2  3  1  0
  3  4  1  0
  5  6  1  0
  1  7  1  0
  2  8  1  0
  3  9  1  0
  3 10  1  0
  4 11  1  0
  5 12  1  0
  5 13  1  0
  6 14  1  0
M  END
$$$$
