
     RDKit          3D

 42 43  0  0  1  0  0  0  0  0999 V2000
   -0.9407   -2.6816   -2.4324 C   0  0  0  0  0  0  0  0  0  0  0  0
   -1.5388   -1.9118   -1.2514 C   0  0  0  0  0  0  0  0  0  0  0  0
   -0.7516   -0.6135   -0.8971 C   0  0  1  0  0  0  0  0  0  0  0  0
   -1.6511    0.3418   -0.0936 C   0  0  0  0  0  0  0  0  0  0  0  0
   -2.7883    0.8796   -0.7327 C   0  0  0  0  0  0  0  0  0  0  0  0
   -3.6374    1.7680   -0.0682 C   0  0  0  0  0  0  0  0  0  0  0  0
   -3.3597    2.1582    1.2419 C   0  0  0  0  0  0  0  0  0  0  0  0
   -2.2204    1.6630    1.8834 C   0  0  0  0  0  0  0  0  0  0  0  0
   -1.3682    0.7732    1.2228 C   0  0  0  0  0  0  0  0  0  0  0  0
   -4.2151    3.0438    1.8933 O   0  0  0  0  0  0  0  0  0  0  0  0
    0.6691   -0.9285   -0.2931 C   0  0  1  0  0  0  0  0  0  0  0  0
    1.6216    0.2715   -0.1702 C   0  0  0  0  0  0  0  0  0  0  0  0
    1.2669    1.5927   -0.5294 C   0  0  0  0  0  0  0  0  0  0  0  0
    2.1887    2.6375   -0.4150 C   0  0  0  0  0  0  0  0  0  0  0  0
    3.4864    2.3888    0.0336 C   0  0  0  0  0  0  0  0  0  0  0  0
    4.3915    3.4420    0.1431 O   0  0  0  0  0  0  0  0  0  0  0  0
    3.8660    1.0839    0.3609 C   0  0  0  0  0  0  0  0  0  0  0  0
    2.9482    0.0365    0.2494 C   0  0  0  0  0  0  0  0  0  0  0  0
    0.6026   -1.7596    1.0325 C   0  0  0  0  0  0  0  0  0  0  0  0
    1.1570   -3.1765    0.8733 C   0  0  0  0  0  0  0  0  0  0  0  0
   -0.8074   -2.0114   -3.3078 H   0  0  0  0  0  0  0  0  0  0  0  0
    0.0323   -3.1396   -2.1659 H   0  0  0  0  0  0  0  0  0  0  0  0
   -1.6303   -3.5021   -2.7230 H   0  0  0  0  0  0  0  0  0  0  0  0
   -1.6190   -2.5877   -0.3764 H   0  0  0  0  0  0  0  0  0  0  0  0
   -2.5816   -1.6615   -1.5385 H   0  0  0  0  0  0  0  0  0  0  0  0
   -0.5595   -0.0996   -1.8661 H   0  0  0  0  0  0  0  0  0  0  0  0
   -3.0159    0.6185   -1.7587 H   0  0  0  0  0  0  0  0  0  0  0  0
   -4.5090    2.1601   -0.5769 H   0  0  0  0  0  0  0  0  0  0  0  0
   -1.9860    1.9769    2.8928 H   0  0  0  0  0  0  0  0  0  0  0  0
   -0.4822    0.4637    1.7491 H   0  0  0  0  0  0  0  0  0  0  0  0
   -4.0387    3.3480    2.8437 H   0  0  0  0  0  0  0  0  0  0  0  0
    1.1753   -1.5561   -1.0570 H   0  0  0  0  0  0  0  0  0  0  0  0
    0.2907    1.8407   -0.9130 H   0  0  0  0  0  0  0  0  0  0  0  0
    1.8948    3.6439   -0.6856 H   0  0  0  0  0  0  0  0  0  0  0  0
    5.3413    3.2928    0.4636 H   0  0  0  0  0  0  0  0  0  0  0  0
    4.8743    0.8778    0.6969 H   0  0  0  0  0  0  0  0  0  0  0  0
    3.2777   -0.9647    0.4932 H   0  0  0  0  0  0  0  0  0  0  0  0
   -0.4379   -1.8463    1.4085 H   0  0  0  0  0  0  0  0  0  0  0  0
    1.1729   -1.2616    1.8466 H   0  0  0  0  0  0  0  0  0  0  0  0
    2.2121   -3.1474    0.5301 H   0  0  0  0  0  0  0  0  0  0  0  0
    0.5511   -3.7510    0.1431 H   0  0  0  0  0  0  0  0  0  0  0  0
    1.1185   -3.7025    1.8505 H   0  0  0  0  0  0  0  0  0  0  0  0
  1  2  1  0
  2  3  1  0
  3 11  1  0
  3  4  1  0
  4  9  1  0
  4  5  2  0
  5  6  1  0
  6  7  2  0
  7  8  1  0
  7 10  1  0
  8  9  2  0
 11 19  1  0
 11 12  1  0
 12 18  1  0
 12 13  2  0
 13 14  1  0
 14 15  2  0
 15 17  1  0
 15 16  1  0
 17 18  2  0
 19 20  1  0
  1 21  1  0
  1 22  1  0
  1 23  1  0
  2 24  1  0
  2 25  1  0
  3 26  1  6
  5 27  1  0
  6 28  1  0
  8 29  1  0
  9 30  1  0
 10 31  1  0
 11 32  1  6
 13 33  1  0
 14 34  1  0
 16 35  1  0
 17 36  1  0
 18 37  1  0
 19 38  1  0
 19 39  1  0
 20 40  1  0
 20 41  1  0
 20 42  1  0
M  END
$$$$
