CC(O)C(C)CC
     RDKit          3D

 21 20  0  0  1  0  0  0  0  0999 V2000
    2.0323   -1.0473    0.5586 C   0  0  0  0  0  0  0  0  0  0  0  0
    0.9194   -0.4750   -0.3324 C   0  0  1  0  0  0  0  0  0  0  0  0
    0.4162   -1.5194   -1.1245 O   0  0  0  0  0  0  0  0  0  0  0  0
   -0.2427    0.1627    0.4869 C   0  0  1  0  0  0  0  0  0  0  0  0
    0.2812    1.1772    1.5223 C   0  0  0  0  0  0  0  0  0  0  0  0
   -1.2748    0.8776   -0.4266 C   0  0  0  0  0  0  0  0  0  0  0  0
   -2.1371   -0.0761   -1.2563 C   0  0  0  0  0  0  0  0  0  0  0  0
    2.7488   -1.6308   -0.0579 H   0  0  0  0  0  0  0  0  0  0  0  0
    1.6045   -1.7189    1.3333 H   0  0  0  0  0  0  0  0  0  0  0  0
    2.6064   -0.2321    1.0463 H   0  0  0  0  0  0  0  0  0  0  0  0
    1.3677    0.3128   -0.9835 H   0  0  0  0  0  0  0  0  0  0  0  0
    1.0458   -1.6390   -1.8833 H   0  0  0  0  0  0  0  0  0  0  0  0
   -0.7656   -0.6417    1.0515 H   0  0  0  0  0  0  0  0  0  0  0  0
    0.9133    1.9472    1.0301 H   0  0  0  0  0  0  0  0  0  0  0  0
   -0.5624    1.6845    2.0374 H   0  0  0  0  0  0  0  0  0  0  0  0
    0.8702    0.6674    2.3126 H   0  0  0  0  0  0  0  0  0  0  0  0
   -1.9729    1.4705    0.2047 H   0  0  0  0  0  0  0  0  0  0  0  0
   -0.7585    1.5919   -1.1046 H   0  0  0  0  0  0  0  0  0  0  0  0
   -3.0124    0.4760   -1.6596 H   0  0  0  0  0  0  0  0  0  0  0  0
   -1.5690   -0.4718   -2.1223 H   0  0  0  0  0  0  0  0  0  0  0  0
   -2.5105   -0.9156   -0.6325 H   0  0  0  0  0  0  0  0  0  0  0  0
  1  2  1  0
  2  4  1  0
  2  3  1  0
  4  5  1  0
  4  6  1  0
  6  7  1  0
  1  8  1  0
  1  9  1  0
  1 10  1  0
  2 11  1  6
  3 12  1  0
  4 13  1  1
  5 14  1  0
  5 15  1  0
  5 16  1  0
  6 17  1  0
  6 18  1  0
  7 19  1  0
  7 20  1  0
  7 21  1  0
M  END
$$$$
