CCCCCCCCCCCCCCCCCC(O)=O
     RDKit          3D

 56 55  0  0  0  0  0  0  0  0999 V2000
   -8.3880    0.5221   -1.0496 C   0  0  0  0  0  0  0  0  0  0  0  0
   -8.1135   -0.5114    0.0427 C   0  0  0  0  0  0  0  0  0  0  0  0
   -7.1452   -1.6177   -0.4262 C   0  0  0  0  0  0  0  0  0  0  0  0
   -5.7171   -1.4580    0.1220 C   0  0  0  0  0  0  0  0  0  0  0  0
   -4.9972   -0.2240   -0.4397 C   0  0  0  0  0  0  0  0  0  0  0  0
   -3.5330   -0.1874    0.0147 C   0  0  0  0  0  0  0  0  0  0  0  0
   -2.8151    1.0520   -0.5412 C   0  0  0  0  0  0  0  0  0  0  0  0
   -1.3967    1.2214    0.0261 C   0  0  0  0  0  0  0  0  0  0  0  0
   -0.4094    0.1789   -0.5270 C   0  0  0  0  0  0  0  0  0  0  0  0
    1.0163    0.3767    0.0140 C   0  0  0  0  0  0  0  0  0  0  0  0
    1.7706    1.5043   -0.7095 C   0  0  0  0  0  0  0  0  0  0  0  0
    3.1446    1.8019   -0.0842 C   0  0  0  0  0  0  0  0  0  0  0  0
    4.1587    0.6485   -0.2366 C   0  0  0  0  0  0  0  0  0  0  0  0
    4.3152   -0.1620    1.0620 C   0  0  0  0  0  0  0  0  0  0  0  0
    5.1339   -1.4514    0.8689 C   0  0  0  0  0  0  0  0  0  0  0  0
    6.5851   -1.2327    0.4043 C   0  0  0  0  0  0  0  0  0  0  0  0
    7.4208   -0.4345    1.4146 C   0  0  0  0  0  0  0  0  0  0  0  0
    8.8666   -0.4193    1.0154 C   0  0  0  0  0  0  0  0  0  0  0  0
    9.2761    0.2308   -0.1455 O   0  0  0  0  0  0  0  0  0  0  0  0
    9.7248   -0.9880    1.7404 O   0  0  0  0  0  0  0  0  0  0  0  0
   -9.0729    1.3028   -0.6574 H   0  0  0  0  0  0  0  0  0  0  0  0
   -8.8720    0.0357   -1.9227 H   0  0  0  0  0  0  0  0  0  0  0  0
   -7.4503    1.0108   -1.3820 H   0  0  0  0  0  0  0  0  0  0  0  0
   -9.0845   -0.9762    0.3209 H   0  0  0  0  0  0  0  0  0  0  0  0
   -7.7281    0.0015    0.9506 H   0  0  0  0  0  0  0  0  0  0  0  0
   -7.1188   -1.6897   -1.5360 H   0  0  0  0  0  0  0  0  0  0  0  0
   -7.5321   -2.5938   -0.0589 H   0  0  0  0  0  0  0  0  0  0  0  0
   -5.7467   -1.4037    1.2325 H   0  0  0  0  0  0  0  0  0  0  0  0
   -5.1417   -2.3690   -0.1542 H   0  0  0  0  0  0  0  0  0  0  0  0
   -5.0372   -0.2439   -1.5511 H   0  0  0  0  0  0  0  0  0  0  0  0
   -5.5063    0.6948   -0.0779 H   0  0  0  0  0  0  0  0  0  0  0  0
   -3.4966   -0.1701    1.1263 H   0  0  0  0  0  0  0  0  0  0  0  0
   -3.0229   -1.1067   -0.3433 H   0  0  0  0  0  0  0  0  0  0  0  0
   -2.7742    1.0011   -1.6515 H   0  0  0  0  0  0  0  0  0  0  0  0
   -3.4005    1.9576   -0.2678 H   0  0  0  0  0  0  0  0  0  0  0  0
   -1.0477    2.2396   -0.2445 H   0  0  0  0  0  0  0  0  0  0  0  0
   -1.4277    1.1630    1.1363 H   0  0  0  0  0  0  0  0  0  0  0  0
   -0.4013    0.2095   -1.6386 H   0  0  0  0  0  0  0  0  0  0  0  0
   -0.7455   -0.8339   -0.2202 H   0  0  0  0  0  0  0  0  0  0  0  0
    0.9818    0.5759    1.1075 H   0  0  0  0  0  0  0  0  0  0  0  0
    1.5690   -0.5743   -0.1424 H   0  0  0  0  0  0  0  0  0  0  0  0
    1.1753    2.4398   -0.6653 H   0  0  0  0  0  0  0  0  0  0  0  0
    1.8985    1.2415   -1.7826 H   0  0  0  0  0  0  0  0  0  0  0  0
    3.0207    2.0919    0.9828 H   0  0  0  0  0  0  0  0  0  0  0  0
    3.5557    2.6950   -0.6048 H   0  0  0  0  0  0  0  0  0  0  0  0
    3.8693   -0.0205   -1.0765 H   0  0  0  0  0  0  0  0  0  0  0  0
    5.1455    1.0902   -0.4935 H   0  0  0  0  0  0  0  0  0  0  0  0
    4.7769    0.4723    1.8481 H   0  0  0  0  0  0  0  0  0  0  0  0
    3.3146   -0.4564    1.4414 H   0  0  0  0  0  0  0  0  0  0  0  0
    5.1442   -2.0113    1.8293 H   0  0  0  0  0  0  0  0  0  0  0  0
    4.6169   -2.0966    0.1252 H   0  0  0  0  0  0  0  0  0  0  0  0
    7.0489   -2.2345    0.2679 H   0  0  0  0  0  0  0  0  0  0  0  0
    6.5973   -0.7323   -0.5868 H   0  0  0  0  0  0  0  0  0  0  0  0
    7.3187   -0.8909    2.4236 H   0  0  0  0  0  0  0  0  0  0  0  0
    7.0639    0.6155    1.4665 H   0  0  0  0  0  0  0  0  0  0  0  0
    8.6125    0.7152   -0.7382 H   0  0  0  0  0  0  0  0  0  0  0  0
  1  2  1  0
  2  3  1  0
  3  4  1  0
  4  5  1  0
  5  6  1  0
  6  7  1  0
  7  8  1  0
  8  9  1  0
  9 10  1  0
 10 11  1  0
 11 12  1  0
 12 13  1  0
 13 14  1  0
 14 15  1  0
 15 16  1  0
 16 17  1  0
 17 18  1  0
 18 19  1  0
 18 20  2  0
  1 21  1  0
  1 22  1  0
  1 23  1  0
  2 24  1  0
  2 25  1  0
  3 26  1  0
  3 27  1  0
  4 28  1  0
  4 29  1  0
  5 30  1  0
  5 31  1  0
  6 32  1  0
  6 33  1  0
  7 34  1  0
  7 35  1  0
  8 36  1  0
  8 37  1  0
  9 38  1  0
  9 39  1  0
 10 40  1  0
 10 41  1  0
 11 42  1  0
 11 43  1  0
 12 44  1  0
 12 45  1  0
 13 46  1  0
 13 47  1  0
 14 48  1  0
 14 49  1  0
 15 50  1  0
 15 51  1  0
 16 52  1  0
 16 53  1  0
 17 54  1  0
 17 55  1  0
 19 56  1  0
M  END
$$$$
