CCCCCCCCCCCCCCCC(O)=O
     RDKit          3D

 50 49  0  0  0  0  0  0  0  0999 V2000
    7.4104    2.1061    0.4238 C   0  0  0  0  0  0  0  0  0  0  0  0
    6.3066    1.0527    0.3884 C   0  0  0  0  0  0  0  0  0  0  0  0
    5.7231    0.9093   -1.0245 C   0  0  0  0  0  0  0  0  0  0  0  0
    4.7510   -0.2776   -1.1575 C   0  0  0  0  0  0  0  0  0  0  0  0
    3.5200   -0.2259   -0.2334 C   0  0  0  0  0  0  0  0  0  0  0  0
    2.5900    0.9606   -0.5377 C   0  0  0  0  0  0  0  0  0  0  0  0
    1.3826    1.0398    0.4153 C   0  0  0  0  0  0  0  0  0  0  0  0
    0.4346   -0.1736    0.3882 C   0  0  0  0  0  0  0  0  0  0  0  0
   -0.2327   -0.3852   -0.9812 C   0  0  0  0  0  0  0  0  0  0  0  0
   -1.1836   -1.5965   -1.0065 C   0  0  0  0  0  0  0  0  0  0  0  0
   -2.3901   -1.5092   -0.0534 C   0  0  0  0  0  0  0  0  0  0  0  0
   -3.2997   -0.3029   -0.3437 C   0  0  0  0  0  0  0  0  0  0  0  0
   -4.5704   -0.3018    0.5225 C   0  0  0  0  0  0  0  0  0  0  0  0
   -5.6463   -1.2655   -0.0085 C   0  0  0  0  0  0  0  0  0  0  0  0
   -6.8896   -1.3182    0.8919 C   0  0  0  0  0  0  0  0  0  0  0  0
   -7.7372   -0.0873    0.7655 C   0  0  0  0  0  0  0  0  0  0  0  0
   -7.3406    1.1008    1.3713 O   0  0  0  0  0  0  0  0  0  0  0  0
   -8.8251   -0.1343    0.1312 O   0  0  0  0  0  0  0  0  0  0  0  0
    8.2456    1.8139   -0.2474 H   0  0  0  0  0  0  0  0  0  0  0  0
    7.0116    3.0930    0.1058 H   0  0  0  0  0  0  0  0  0  0  0  0
    7.8032    2.1980    1.4583 H   0  0  0  0  0  0  0  0  0  0  0  0
    5.5098    1.3622    1.0972 H   0  0  0  0  0  0  0  0  0  0  0  0
    6.7263    0.0801    0.7252 H   0  0  0  0  0  0  0  0  0  0  0  0
    5.2259    1.8542   -1.3286 H   0  0  0  0  0  0  0  0  0  0  0  0
    6.5562    0.7399   -1.7415 H   0  0  0  0  0  0  0  0  0  0  0  0
    5.3078   -1.2170   -0.9477 H   0  0  0  0  0  0  0  0  0  0  0  0
    4.4060   -0.3363   -2.2129 H   0  0  0  0  0  0  0  0  0  0  0  0
    2.9615   -1.1720   -0.3914 H   0  0  0  0  0  0  0  0  0  0  0  0
    3.8348   -0.2053    0.8310 H   0  0  0  0  0  0  0  0  0  0  0  0
    3.1548    1.9075   -0.4141 H   0  0  0  0  0  0  0  0  0  0  0  0
    2.2505    0.9210   -1.5936 H   0  0  0  0  0  0  0  0  0  0  0  0
    0.7989    1.9536    0.1684 H   0  0  0  0  0  0  0  0  0  0  0  0
    1.7581    1.1687    1.4541 H   0  0  0  0  0  0  0  0  0  0  0  0
    0.9705   -1.0938    0.7014 H   0  0  0  0  0  0  0  0  0  0  0  0
   -0.3505    0.0195    1.1484 H   0  0  0  0  0  0  0  0  0  0  0  0
    0.5524   -0.5797   -1.7412 H   0  0  0  0  0  0  0  0  0  0  0  0
   -0.7689    0.5352   -1.2940 H   0  0  0  0  0  0  0  0  0  0  0  0
   -1.5600   -1.7256   -2.0448 H   0  0  0  0  0  0  0  0  0  0  0  0
   -0.6034   -2.5119   -0.7578 H   0  0  0  0  0  0  0  0  0  0  0  0
   -2.9696   -2.4477   -0.1752 H   0  0  0  0  0  0  0  0  0  0  0  0
   -2.0469   -1.4818    1.0020 H   0  0  0  0  0  0  0  0  0  0  0  0
   -2.7402    0.6287   -0.1137 H   0  0  0  0  0  0  0  0  0  0  0  0
   -3.5738   -0.2770   -1.4211 H   0  0  0  0  0  0  0  0  0  0  0  0
   -4.9792    0.7303    0.5161 H   0  0  0  0  0  0  0  0  0  0  0  0
   -4.3116   -0.5556    1.5741 H   0  0  0  0  0  0  0  0  0  0  0  0
   -5.2283   -2.2922   -0.0600 H   0  0  0  0  0  0  0  0  0  0  0  0
   -5.9428   -0.9722   -1.0398 H   0  0  0  0  0  0  0  0  0  0  0  0
   -6.5979   -1.4628    1.9544 H   0  0  0  0  0  0  0  0  0  0  0  0
   -7.4952   -2.2024    0.5944 H   0  0  0  0  0  0  0  0  0  0  0  0
   -7.9085    1.9364    1.2982 H   0  0  0  0  0  0  0  0  0  0  0  0
  1  2  1  0
  2  3  1  0
  3  4  1  0
  4  5  1  0
  5  6  1  0
  6  7  1  0
  7  8  1  0
  8  9  1  0
  9 10  1  0
 10 11  1  0
 11 12  1  0
 12 13  1  0
 13 14  1  0
 14 15  1  0
 15 16  1  0
 16 17  1  0
 16 18  2  0
  1 19  1  0
  1 20  1  0
  1 21  1  0
  2 22  1  0
  2 23  1  0
  3 24  1  0
  3 25  1  0
  4 26  1  0
  4 27  1  0
  5 28  1  0
  5 29  1  0
  6 30  1  0
  6 31  1  0
  7 32  1  0
  7 33  1  0
  8 34  1  0
  8 35  1  0
  9 36  1  0
  9 37  1  0
 10 38  1  0
 10 39  1  0
 11 40  1  0
 11 41  1  0
 12 42  1  0
 12 43  1  0
 13 44  1  0
 13 45  1  0
 14 46  1  0
 14 47  1  0
 15 48  1  0
 15 49  1  0
 17 50  1  0
M  END
$$$$
