Oc1cc(CCC3C2CCC4(C)C3CCC4(C#C)O)c2cc1
     RDKit          3D

 46 49  0  0  1  0  0  0  0  0999 V2000
    6.5864    0.2026   -0.4331 O   0  0  0  0  0  0  0  0  0  0  0  0
    5.2012    0.0569   -0.4599 C   0  0  0  0  0  0  0  0  0  0  0  0
    4.3895    1.1075   -0.0264 C   0  0  0  0  0  0  0  0  0  0  0  0
    2.9910    0.9858   -0.0392 C   0  0  0  0  0  0  0  0  0  0  0  0
    2.1592    2.1372    0.5180 C   0  0  0  0  0  0  0  0  0  0  0  0
    0.6439    1.8568    0.7115 C   0  0  0  0  0  0  0  0  0  0  0  0
    0.3397    0.3504    0.7240 C   0  0  2  0  0  0  0  0  0  0  0  0
    0.8869   -0.2692   -0.5879 C   0  0  2  0  0  0  0  0  0  0  0  0
    0.2416   -1.6472   -0.8785 C   0  0  0  0  0  0  0  0  0  0  0  0
   -1.3049   -1.5622   -1.0487 C   0  0  0  0  0  0  0  0  0  0  0  0
   -1.9842   -0.4056   -0.2349 C   0  0  2  0  0  0  0  0  0  0  0  0
   -2.1968    0.8399   -1.1616 C   0  0  0  0  0  0  0  0  0  0  0  0
   -1.1299   -0.0750    0.9991 C   0  0  2  0  0  0  0  0  0  0  0  0
   -2.0220    0.7703    1.9024 C   0  0  0  0  0  0  0  0  0  0  0  0
   -3.4460    0.2535    1.6223 C   0  0  0  0  0  0  0  0  0  0  0  0
   -3.3329   -0.7810    0.4659 C   0  0  1  0  0  0  0  0  0  0  0  0
   -4.5045   -0.7188   -0.4403 C   0  0  0  0  0  0  0  0  0  0  0  0
   -5.4589   -0.6707   -1.1755 C   0  0  0  0  0  0  0  0  0  0  0  0
   -3.2497   -2.0804    1.0113 O   0  0  0  0  0  0  0  0  0  0  0  0
    2.3993   -0.2105   -0.5209 C   0  0  0  0  0  0  0  0  0  0  0  0
    3.2294   -1.2684   -0.9418 C   0  0  0  0  0  0  0  0  0  0  0  0
    4.6186   -1.1317   -0.9106 C   0  0  0  0  0  0  0  0  0  0  0  0
    7.2033   -0.5409   -0.7388 H   0  0  0  0  0  0  0  0  0  0  0  0
    4.8511    2.0185    0.3356 H   0  0  0  0  0  0  0  0  0  0  0  0
    2.5852    2.4162    1.5070 H   0  0  0  0  0  0  0  0  0  0  0  0
    2.2813    3.0191   -0.1472 H   0  0  0  0  0  0  0  0  0  0  0  0
    0.0720    2.3570   -0.0970 H   0  0  0  0  0  0  0  0  0  0  0  0
    0.3236    2.3125    1.6730 H   0  0  0  0  0  0  0  0  0  0  0  0
    0.9284   -0.0673    1.5768 H   0  0  0  0  0  0  0  0  0  0  0  0
    0.6389    0.3735   -1.4541 H   0  0  0  0  0  0  0  0  0  0  0  0
    0.6560   -2.0731   -1.8168 H   0  0  0  0  0  0  0  0  0  0  0  0
    0.4855   -2.3446   -0.0470 H   0  0  0  0  0  0  0  0  0  0  0  0
   -1.5369   -1.4454   -2.1302 H   0  0  0  0  0  0  0  0  0  0  0  0
   -1.7225   -2.5519   -0.7722 H   0  0  0  0  0  0  0  0  0  0  0  0
   -2.8359    0.5719   -2.0291 H   0  0  0  0  0  0  0  0  0  0  0  0
   -1.2668    1.2394   -1.5901 H   0  0  0  0  0  0  0  0  0  0  0  0
   -2.6952    1.6753   -0.6288 H   0  0  0  0  0  0  0  0  0  0  0  0
   -1.0155   -1.0390    1.5562 H   0  0  0  0  0  0  0  0  0  0  0  0
   -1.7458    0.6388    2.9714 H   0  0  0  0  0  0  0  0  0  0  0  0
   -1.9585    1.8473    1.6394 H   0  0  0  0  0  0  0  0  0  0  0  0
   -4.0964    1.1104    1.3356 H   0  0  0  0  0  0  0  0  0  0  0  0
   -3.8776   -0.2045    2.5391 H   0  0  0  0  0  0  0  0  0  0  0  0
   -6.2962   -0.6280   -1.8210 H   0  0  0  0  0  0  0  0  0  0  0  0
   -4.0996   -2.2725    1.4900 H   0  0  0  0  0  0  0  0  0  0  0  0
    2.8217   -2.2013   -1.3012 H   0  0  0  0  0  0  0  0  0  0  0  0
    5.2432   -1.9515   -1.2423 H   0  0  0  0  0  0  0  0  0  0  0  0
  1  2  1  0
  2 22  2  0
  2  3  1  0
  3  4  2  0
  4  5  1  0
  4 20  1  0
  5  6  1  0
  6  7  1  0
  7  8  1  0
  7 13  1  0
  8  9  1  0
  8 20  1  0
  9 10  1  0
 10 11  1  0
 11 12  1  6
 11 13  1  0
 11 16  1  0
 13 14  1  0
 14 15  1  0
 15 16  1  0
 16 17  1  6
 16 19  1  0
 17 18  3  0
 20 21  2  0
 21 22  1  0
  1 23  1  0
  3 24  1  0
  5 25  1  0
  5 26  1  0
  6 27  1  0
  6 28  1  0
  7 29  1  1
  8 30  1  6
  9 31  1  0
  9 32  1  0
 10 33  1  0
 10 34  1  0
 12 35  1  0
 12 36  1  0
 12 37  1  0
 13 38  1  1
 14 39  1  0
 14 40  1  0
 15 41  1  0
 15 42  1  0
 18 43  1  0
 19 44  1  0
 21 45  1  0
 22 46  1  0
M  END
$$$$
