O=C1CCC2(C)C(CCC3C2CCC4(C)C3CCC4OC(CC)=O)=C1
     RDKit          3D

 57 60  0  0  1  0  0  0  0  0999 V2000
   -6.8392    0.4925   -0.8186 O   0  0  0  0  0  0  0  0  0  0  0  0
   -5.6722    0.2531   -0.4100 C   0  0  0  0  0  0  0  0  0  0  0  0
   -5.2609   -1.1647   -0.1427 C   0  0  0  0  0  0  0  0  0  0  0  0
   -3.7322   -1.3118   -0.1139 C   0  0  0  0  0  0  0  0  0  0  0  0
   -3.0382   -0.2204    0.7568 C   0  0  2  0  0  0  0  0  0  0  0  0
   -3.4239   -0.4161    2.2439 C   0  0  0  0  0  0  0  0  0  0  0  0
   -3.5127    1.1760    0.3200 C   0  0  0  0  0  0  0  0  0  0  0  0
   -2.5274    2.3331    0.3788 C   0  0  0  0  0  0  0  0  0  0  0  0
   -1.2303    2.0376   -0.4196 C   0  0  0  0  0  0  0  0  0  0  0  0
   -1.0194    0.5242   -0.6521 C   0  0  2  0  0  0  0  0  0  0  0  0
   -1.4718   -0.2773    0.6088 C   0  0  2  0  0  0  0  0  0  0  0  0
   -0.8218   -1.6860    0.6524 C   0  0  0  0  0  0  0  0  0  0  0  0
    0.7357   -1.6197    0.7095 C   0  0  0  0  0  0  0  0  0  0  0  0
    1.3518   -0.3830   -0.0314 C   0  0  2  0  0  0  0  0  0  0  0  0
    1.6975    0.7410    0.9883 C   0  0  0  0  0  0  0  0  0  0  0  0
    0.3865    0.0830   -1.1333 C   0  0  2  0  0  0  0  0  0  0  0  0
    1.2035    0.9739   -2.0640 C   0  0  0  0  0  0  0  0  0  0  0  0
    2.6096    0.3442   -2.0426 C   0  0  0  0  0  0  0  0  0  0  0  0
    2.5889   -0.7126   -0.9083 C   0  0  1  0  0  0  0  0  0  0  0  0
    3.8262   -0.9091   -0.2003 O   0  0  0  0  0  0  0  0  0  0  0  0
    4.7210    0.0548    0.2933 C   0  0  0  0  0  0  0  0  0  0  0  0
    5.9653   -0.4051    0.9824 C   0  0  0  0  0  0  0  0  0  0  0  0
    7.0737   -0.6622   -0.0313 C   0  0  0  0  0  0  0  0  0  0  0  0
    4.5221    1.2892    0.1423 O   0  0  0  0  0  0  0  0  0  0  0  0
   -4.7440    1.3718   -0.1798 C   0  0  0  0  0  0  0  0  0  0  0  0
   -5.6974   -1.4954    0.8230 H   0  0  0  0  0  0  0  0  0  0  0  0
   -5.6711   -1.8240   -0.9381 H   0  0  0  0  0  0  0  0  0  0  0  0
   -3.4894   -2.3267    0.2689 H   0  0  0  0  0  0  0  0  0  0  0  0
   -3.3617   -1.2581   -1.1598 H   0  0  0  0  0  0  0  0  0  0  0  0
   -3.1618   -1.4375    2.5906 H   0  0  0  0  0  0  0  0  0  0  0  0
   -4.5118   -0.2637    2.4025 H   0  0  0  0  0  0  0  0  0  0  0  0
   -2.8985    0.3190    2.8909 H   0  0  0  0  0  0  0  0  0  0  0  0
   -2.9775    3.2806    0.0091 H   0  0  0  0  0  0  0  0  0  0  0  0
   -2.2641    2.4997    1.4456 H   0  0  0  0  0  0  0  0  0  0  0  0
   -1.2873    2.5456   -1.4073 H   0  0  0  0  0  0  0  0  0  0  0  0
   -0.3687    2.4750    0.1255 H   0  0  0  0  0  0  0  0  0  0  0  0
   -1.7045    0.2619   -1.4900 H   0  0  0  0  0  0  0  0  0  0  0  0
   -1.0766    0.2437    1.5006 H   0  0  0  0  0  0  0  0  0  0  0  0
   -1.1194   -2.2566   -0.2539 H   0  0  0  0  0  0  0  0  0  0  0  0
   -1.1877   -2.2504    1.5358 H   0  0  0  0  0  0  0  0  0  0  0  0
    1.1285   -2.5672    0.2818 H   0  0  0  0  0  0  0  0  0  0  0  0
    1.0532   -1.6201    1.7754 H   0  0  0  0  0  0  0  0  0  0  0  0
    0.8426    1.0568    1.6046 H   0  0  0  0  0  0  0  0  0  0  0  0
    2.0761    1.6519    0.4840 H   0  0  0  0  0  0  0  0  0  0  0  0
    2.4641    0.3839    1.7064 H   0  0  0  0  0  0  0  0  0  0  0  0
    0.1734   -0.8228   -1.7572 H   0  0  0  0  0  0  0  0  0  0  0  0
    1.2464    2.0175   -1.6868 H   0  0  0  0  0  0  0  0  0  0  0  0
    0.7771    0.9776   -3.0909 H   0  0  0  0  0  0  0  0  0  0  0  0
    2.8201   -0.1516   -3.0157 H   0  0  0  0  0  0  0  0  0  0  0  0
    3.3684    1.1353   -1.9037 H   0  0  0  0  0  0  0  0  0  0  0  0
    2.3838   -1.6852   -1.4114 H   0  0  0  0  0  0  0  0  0  0  0  0
    5.7518   -1.3413    1.5413 H   0  0  0  0  0  0  0  0  0  0  0  0
    6.3006    0.3643    1.7113 H   0  0  0  0  0  0  0  0  0  0  0  0
    6.7623   -1.4482   -0.7524 H   0  0  0  0  0  0  0  0  0  0  0  0
    7.9878   -1.0065    0.4969 H   0  0  0  0  0  0  0  0  0  0  0  0
    7.3132    0.2704   -0.5858 H   0  0  0  0  0  0  0  0  0  0  0  0
   -5.0598    2.3655   -0.4747 H   0  0  0  0  0  0  0  0  0  0  0  0
  1  2  2  0
  2  3  1  0
  2 25  1  0
  3  4  1  0
  4  5  1  0
  5  6  1  1
  5 11  1  0
  5  7  1  0
  7  8  1  0
  7 25  2  0
  8  9  1  0
  9 10  1  0
 10 11  1  0
 10 16  1  0
 11 12  1  0
 12 13  1  0
 13 14  1  0
 14 15  1  1
 14 16  1  0
 14 19  1  0
 16 17  1  0
 17 18  1  0
 18 19  1  0
 19 20  1  0
 20 21  1  0
 21 22  1  0
 21 24  2  0
 22 23  1  0
  3 26  1  0
  3 27  1  0
  4 28  1  0
  4 29  1  0
  6 30  1  0
  6 31  1  0
  6 32  1  0
  8 33  1  0
  8 34  1  0
  9 35  1  0
  9 36  1  0
 10 37  1  6
 11 38  1  1
 12 39  1  0
 12 40  1  0
 13 41  1  0
 13 42  1  0
 15 43  1  0
 15 44  1  0
 15 45  1  0
 16 46  1  6
 17 47  1  0
 17 48  1  0
 18 49  1  0
 18 50  1  0
 19 51  1  6
 22 52  1  0
 22 53  1  0
 23 54  1  0
 23 55  1  0
 23 56  1  0
 25 57  1  0
M  END
$$$$
