O=C1CCC2(C)C(CCC3C2CCC4(C)C3CCC4C(C)=O)=C1
     RDKit          3D

 53 56  0  0  1  0  0  0  0  0999 V2000
    5.1572   -2.5924    0.0003 O   0  0  0  0  0  0  0  0  0  0  0  0
    4.2542   -1.7254   -0.1378 C   0  0  0  0  0  0  0  0  0  0  0  0
    3.3392   -1.7699   -1.3173 C   0  0  0  0  0  0  0  0  0  0  0  0
    3.0438   -0.3442   -1.7656 C   0  0  0  0  0  0  0  0  0  0  0  0
    2.4902    0.5808   -0.6220 C   0  0  2  0  0  0  0  0  0  0  0  0
    2.8698    2.0320   -1.0167 C   0  0  0  0  0  0  0  0  0  0  0  0
    3.1529    0.2809    0.7421 C   0  0  0  0  0  0  0  0  0  0  0  0
    2.4490    0.8267    1.9705 C   0  0  0  0  0  0  0  0  0  0  0  0
    1.0420    0.1807    2.1133 C   0  0  0  0  0  0  0  0  0  0  0  0
    0.5417   -0.4350    0.7777 C   0  0  2  0  0  0  0  0  0  0  0  0
    0.9182    0.5007   -0.4160 C   0  0  2  0  0  0  0  0  0  0  0  0
    0.0493    0.2041   -1.6622 C   0  0  0  0  0  0  0  0  0  0  0  0
   -1.4745    0.4047   -1.3939 C   0  0  0  0  0  0  0  0  0  0  0  0
   -1.9160    0.1382    0.0867 C   0  0  2  0  0  0  0  0  0  0  0  0
   -2.0213    1.4768    0.8877 C   0  0  0  0  0  0  0  0  0  0  0  0
   -0.9469   -0.8703    0.7215 C   0  0  2  0  0  0  0  0  0  0  0  0
   -1.6397   -1.3906    1.9722 C   0  0  0  0  0  0  0  0  0  0  0  0
   -3.1341   -1.3647    1.6075 C   0  0  0  0  0  0  0  0  0  0  0  0
   -3.2508   -0.6470    0.2332 C   0  0  1  0  0  0  0  0  0  0  0  0
   -4.5135    0.1880    0.0659 C   0  0  0  0  0  0  0  0  0  0  0  0
   -4.9375    0.6789   -1.2863 C   0  0  0  0  0  0  0  0  0  0  0  0
   -5.2084    0.4683    1.0314 O   0  0  0  0  0  0  0  0  0  0  0  0
    4.0178   -0.7349    0.9168 C   0  0  0  0  0  0  0  0  0  0  0  0
    2.3991   -2.2938   -1.0479 H   0  0  0  0  0  0  0  0  0  0  0  0
    3.8202   -2.3262   -2.1512 H   0  0  0  0  0  0  0  0  0  0  0  0
    2.3806   -0.3620   -2.6524 H   0  0  0  0  0  0  0  0  0  0  0  0
    4.0091    0.0640   -2.1439 H   0  0  0  0  0  0  0  0  0  0  0  0
    2.5049    2.7754   -0.2774 H   0  0  0  0  0  0  0  0  0  0  0  0
    2.4313    2.2914   -2.0044 H   0  0  0  0  0  0  0  0  0  0  0  0
    3.9737    2.1478   -1.0813 H   0  0  0  0  0  0  0  0  0  0  0  0
    2.3362    1.9259    1.8675 H   0  0  0  0  0  0  0  0  0  0  0  0
    3.0398    0.6571    2.8976 H   0  0  0  0  0  0  0  0  0  0  0  0
    0.3304    0.9460    2.4851 H   0  0  0  0  0  0  0  0  0  0  0  0
    1.0918   -0.6246    2.8784 H   0  0  0  0  0  0  0  0  0  0  0  0
    1.1168   -1.3800    0.6559 H   0  0  0  0  0  0  0  0  0  0  0  0
    0.6161    1.5210   -0.1209 H   0  0  0  0  0  0  0  0  0  0  0  0
    0.2175   -0.8487   -1.9782 H   0  0  0  0  0  0  0  0  0  0  0  0
    0.3518    0.8669   -2.5014 H   0  0  0  0  0  0  0  0  0  0  0  0
   -1.7609    1.4361   -1.6950 H   0  0  0  0  0  0  0  0  0  0  0  0
   -2.0149   -0.2764   -2.0847 H   0  0  0  0  0  0  0  0  0  0  0  0
   -2.3933    1.3072    1.9193 H   0  0  0  0  0  0  0  0  0  0  0  0
   -2.7326    2.1679    0.3884 H   0  0  0  0  0  0  0  0  0  0  0  0
   -1.0733    2.0263    0.9786 H   0  0  0  0  0  0  0  0  0  0  0  0
   -0.9377   -1.7548    0.0341 H   0  0  0  0  0  0  0  0  0  0  0  0
   -1.3002   -2.4202    2.2194 H   0  0  0  0  0  0  0  0  0  0  0  0
   -1.4500   -0.7264    2.8419 H   0  0  0  0  0  0  0  0  0  0  0  0
   -3.5344   -2.3996    1.5337 H   0  0  0  0  0  0  0  0  0  0  0  0
   -3.6874   -0.8351    2.4125 H   0  0  0  0  0  0  0  0  0  0  0  0
   -3.2888   -1.4493   -0.5395 H   0  0  0  0  0  0  0  0  0  0  0  0
   -5.9835    0.3641   -1.4844 H   0  0  0  0  0  0  0  0  0  0  0  0
   -4.2944    0.2646   -2.0877 H   0  0  0  0  0  0  0  0  0  0  0  0
   -4.8799    1.7870   -1.3137 H   0  0  0  0  0  0  0  0  0  0  0  0
    4.4294   -0.9377    1.8986 H   0  0  0  0  0  0  0  0  0  0  0  0
  1  2  2  0
  2  3  1  0
  2 23  1  0
  3  4  1  0
  4  5  1  0
  5  6  1  6
  5 11  1  0
  5  7  1  0
  7  8  1  0
  7 23  2  0
  8  9  1  0
  9 10  1  0
 10 16  1  0
 10 11  1  0
 11 12  1  0
 12 13  1  0
 13 14  1  0
 14 15  1  1
 14 16  1  0
 14 19  1  0
 16 17  1  0
 17 18  1  0
 18 19  1  0
 19 20  1  0
 20 21  1  0
 20 22  2  0
  3 24  1  0
  3 25  1  0
  4 26  1  0
  4 27  1  0
  6 28  1  0
  6 29  1  0
  6 30  1  0
  8 31  1  0
  8 32  1  0
  9 33  1  0
  9 34  1  0
 10 35  1  6
 11 36  1  1
 12 37  1  0
 12 38  1  0
 13 39  1  0
 13 40  1  0
 15 41  1  0
 15 42  1  0
 15 43  1  0
 16 44  1  6
 17 45  1  0
 17 46  1  0
 18 47  1  0
 18 48  1  0
 19 49  1  6
 21 50  1  0
 21 51  1  0
 21 52  1  0
 23 53  1  0
M  END
$$$$
