Cc1c(c(cccc4)c4cc3)c3c(C)c2c1cccc2
     RDKit          3D

 36 39  0  0  0  0  0  0  0  0999 V2000
    0.1349    2.4746    0.7388 C   0  0  0  0  0  0  0  0  0  0  0  0
   -0.3379    1.1478    0.1664 C   0  0  0  0  0  0  0  0  0  0  0  0
    0.5471    0.0350    0.0741 C   0  0  0  0  0  0  0  0  0  0  0  0
    1.9683    0.1666   -0.0502 C   0  0  0  0  0  0  0  0  0  0  0  0
    2.5871    1.3247   -0.5772 C   0  0  0  0  0  0  0  0  0  0  0  0
    3.9784    1.4304   -0.6411 C   0  0  0  0  0  0  0  0  0  0  0  0
    4.7823    0.3718   -0.2250 C   0  0  0  0  0  0  0  0  0  0  0  0
    4.1978   -0.8173    0.2075 C   0  0  0  0  0  0  0  0  0  0  0  0
    2.7997   -0.9417    0.2569 C   0  0  0  0  0  0  0  0  0  0  0  0
    2.2276   -2.1735    0.5676 C   0  0  0  0  0  0  0  0  0  0  0  0
    0.8538   -2.3521    0.4655 C   0  0  0  0  0  0  0  0  0  0  0  0
   -0.0027   -1.2756    0.1458 C   0  0  0  0  0  0  0  0  0  0  0  0
   -1.3915   -1.4815   -0.0739 C   0  0  0  0  0  0  0  0  0  0  0  0
   -1.9354   -2.8853   -0.2940 C   0  0  0  0  0  0  0  0  0  0  0  0
   -2.2608   -0.3604   -0.1309 C   0  0  0  0  0  0  0  0  0  0  0  0
   -1.7291    0.9539   -0.0263 C   0  0  0  0  0  0  0  0  0  0  0  0
   -2.6114    2.0584   -0.1057 C   0  0  0  0  0  0  0  0  0  0  0  0
   -3.9840    1.8728   -0.2458 C   0  0  0  0  0  0  0  0  0  0  0  0
   -4.5103    0.5896   -0.2980 C   0  0  0  0  0  0  0  0  0  0  0  0
   -3.6658   -0.5166   -0.2355 C   0  0  0  0  0  0  0  0  0  0  0  0
   -0.5576    2.8122    1.5390 H   0  0  0  0  0  0  0  0  0  0  0  0
    1.1203    2.3957    1.2404 H   0  0  0  0  0  0  0  0  0  0  0  0
    0.1710    3.2483   -0.0564 H   0  0  0  0  0  0  0  0  0  0  0  0
    2.0075    2.1373   -0.9884 H   0  0  0  0  0  0  0  0  0  0  0  0
    4.4341    2.3316   -1.0310 H   0  0  0  0  0  0  0  0  0  0  0  0
    5.8600    0.4580   -0.2766 H   0  0  0  0  0  0  0  0  0  0  0  0
    4.8378   -1.6508    0.4724 H   0  0  0  0  0  0  0  0  0  0  0  0
    2.8504   -3.0235    0.8221 H   0  0  0  0  0  0  0  0  0  0  0  0
    0.4728   -3.3396    0.6836 H   0  0  0  0  0  0  0  0  0  0  0  0
   -2.7228   -2.8954   -1.0741 H   0  0  0  0  0  0  0  0  0  0  0  0
   -2.3376   -3.2899    0.6581 H   0  0  0  0  0  0  0  0  0  0  0  0
   -1.1707   -3.5750   -0.7025 H   0  0  0  0  0  0  0  0  0  0  0  0
   -2.2501    3.0776   -0.0791 H   0  0  0  0  0  0  0  0  0  0  0  0
   -4.6431    2.7296   -0.3040 H   0  0  0  0  0  0  0  0  0  0  0  0
   -5.5804    0.4493   -0.3830 H   0  0  0  0  0  0  0  0  0  0  0  0
   -4.1396   -1.4868   -0.2398 H   0  0  0  0  0  0  0  0  0  0  0  0
  1  2  1  0
  2 16  2  0
  2  3  1  0
  3  4  2  0
  3 12  1  0
  4  5  1  0
  4  9  1  0
  5  6  2  0
  6  7  1  0
  7  8  2  0
  8  9  1  0
  9 10  2  0
 10 11  1  0
 11 12  2  0
 12 13  1  0
 13 14  1  0
 13 15  2  0
 15 20  1  0
 15 16  1  0
 16 17  1  0
 17 18  2  0
 18 19  1  0
 19 20  2  0
  1 21  1  0
  1 22  1  0
  1 23  1  0
  5 24  1  0
  6 25  1  0
  7 26  1  0
  8 27  1  0
 10 28  1  0
 11 29  1  0
 14 30  1  0
 14 31  1  0
 14 32  1  0
 17 33  1  0
 18 34  1  0
 19 35  1  0
 20 36  1  0
M  END
$$$$
