CC34CCC2c1c(CCC2C3CCC4O)cc(O)cc1
     RDKit          3D

 44 47  0  0  1  0  0  0  0  0999 V2000
   -2.2790   -0.9936   -1.6134 C   0  0  0  0  0  0  0  0  0  0  0  0
   -2.1924   -0.8287   -0.0626 C   0  0  1  0  0  0  0  0  0  0  0  0
   -1.3273   -1.9686    0.5282 C   0  0  0  0  0  0  0  0  0  0  0  0
    0.1631   -1.8233    0.1244 C   0  0  0  0  0  0  0  0  0  0  0  0
    0.7450   -0.4088    0.4331 C   0  0  1  0  0  0  0  0  0  0  0  0
    2.1943   -0.2140   -0.0177 C   0  0  0  0  0  0  0  0  0  0  0  0
    2.6690    1.0790   -0.3748 C   0  0  0  0  0  0  0  0  0  0  0  0
    1.7587    2.2859   -0.4475 C   0  0  0  0  0  0  0  0  0  0  0  0
    0.4138    2.0774    0.2530 C   0  0  0  0  0  0  0  0  0  0  0  0
   -0.1676    0.7153   -0.1424 C   0  0  2  0  0  0  0  0  0  0  0  0
   -1.5948    0.5068    0.3992 C   0  0  1  0  0  0  0  0  0  0  0  0
   -2.6685    1.5384    0.0850 C   0  0  0  0  0  0  0  0  0  0  0  0
   -3.9905    0.7806    0.3003 C   0  0  0  0  0  0  0  0  0  0  0  0
   -3.6371   -0.7142    0.4757 C   0  0  2  0  0  0  0  0  0  0  0  0
   -3.7070   -1.0476    1.8403 O   0  0  0  0  0  0  0  0  0  0  0  0
    4.0146    1.2526   -0.7376 C   0  0  0  0  0  0  0  0  0  0  0  0
    4.9071    0.1814   -0.7047 C   0  0  0  0  0  0  0  0  0  0  0  0
    6.2376    0.3827   -1.0654 O   0  0  0  0  0  0  0  0  0  0  0  0
    4.4605   -1.0795   -0.3052 C   0  0  0  0  0  0  0  0  0  0  0  0
    3.1242   -1.2744    0.0473 C   0  0  0  0  0  0  0  0  0  0  0  0
   -2.8630   -0.1770   -2.0857 H   0  0  0  0  0  0  0  0  0  0  0  0
   -2.7873   -1.9504   -1.8606 H   0  0  0  0  0  0  0  0  0  0  0  0
   -1.2907   -1.0214   -2.1085 H   0  0  0  0  0  0  0  0  0  0  0  0
   -1.3805   -1.9592    1.6387 H   0  0  0  0  0  0  0  0  0  0  0  0
   -1.7105   -2.9552    0.1880 H   0  0  0  0  0  0  0  0  0  0  0  0
    0.3036   -2.0670   -0.9491 H   0  0  0  0  0  0  0  0  0  0  0  0
    0.7132   -2.5912    0.7057 H   0  0  0  0  0  0  0  0  0  0  0  0
    0.7566   -0.3123    1.5427 H   0  0  0  0  0  0  0  0  0  0  0  0
    2.2625    3.1651    0.0102 H   0  0  0  0  0  0  0  0  0  0  0  0
    1.5756    2.5205   -1.5189 H   0  0  0  0  0  0  0  0  0  0  0  0
   -0.2704    2.8969   -0.0546 H   0  0  0  0  0  0  0  0  0  0  0  0
    0.5481    2.1369    1.3559 H   0  0  0  0  0  0  0  0  0  0  0  0
   -0.1767    0.6693   -1.2521 H   0  0  0  0  0  0  0  0  0  0  0  0
   -1.5136    0.4936    1.5144 H   0  0  0  0  0  0  0  0  0  0  0  0
   -2.5823    1.8885   -0.9668 H   0  0  0  0  0  0  0  0  0  0  0  0
   -2.5958    2.4135    0.7670 H   0  0  0  0  0  0  0  0  0  0  0  0
   -4.5239    1.1726    1.1941 H   0  0  0  0  0  0  0  0  0  0  0  0
   -4.6493    0.9178   -0.5850 H   0  0  0  0  0  0  0  0  0  0  0  0
   -4.3551   -1.3425   -0.1048 H   0  0  0  0  0  0  0  0  0  0  0  0
   -3.8565   -2.0278    1.8891 H   0  0  0  0  0  0  0  0  0  0  0  0
    4.3734    2.2285   -1.0427 H   0  0  0  0  0  0  0  0  0  0  0  0
    6.9110   -0.3744   -1.0504 H   0  0  0  0  0  0  0  0  0  0  0  0
    5.1517   -1.9117   -0.2599 H   0  0  0  0  0  0  0  0  0  0  0  0
    2.8365   -2.2606    0.3767 H   0  0  0  0  0  0  0  0  0  0  0  0
  2  1  1  6
  2  3  1  0
  2 11  1  0
  2 14  1  0
  3  4  1  0
  4  5  1  0
  5 10  1  0
  5  6  1  0
  6 20  2  0
  6  7  1  0
  7  8  1  0
  7 16  2  0
  8  9  1  0
  9 10  1  0
 10 11  1  0
 11 12  1  0
 12 13  1  0
 13 14  1  0
 14 15  1  0
 16 17  1  0
 17 19  2  0
 17 18  1  0
 19 20  1  0
  1 21  1  0
  1 22  1  0
  1 23  1  0
  3 24  1  0
  3 25  1  0
  4 26  1  0
  4 27  1  0
  5 28  1  1
  8 29  1  0
  8 30  1  0
  9 31  1  0
  9 32  1  0
 10 33  1  6
 11 34  1  1
 12 35  1  0
 12 36  1  0
 13 37  1  0
 13 38  1  0
 14 39  1  6
 15 40  1  0
 16 41  1  0
 18 42  1  0
 19 43  1  0
 20 44  1  0
M  END
$$$$
