Cc1c(cccc2)c2c(C)cc1
     RDKit          3D

 24 25  0  0  0  0  0  0  0  0999 V2000
    3.0561    0.0685   -0.3670 C   0  0  0  0  0  0  0  0  0  0  0  0
    1.6196   -0.3757   -0.2427 C   0  0  0  0  0  0  0  0  0  0  0  0
    0.5658    0.5441   -0.0058 C   0  0  0  0  0  0  0  0  0  0  0  0
    0.8150    1.9281    0.1257 C   0  0  0  0  0  0  0  0  0  0  0  0
   -0.2296    2.8218    0.3584 C   0  0  0  0  0  0  0  0  0  0  0  0
   -1.5374    2.3588    0.4647 C   0  0  0  0  0  0  0  0  0  0  0  0
   -1.8130    0.9978    0.3393 C   0  0  0  0  0  0  0  0  0  0  0  0
   -0.7750    0.0694    0.1032 C   0  0  0  0  0  0  0  0  0  0  0  0
   -1.0419   -1.3179   -0.0264 C   0  0  0  0  0  0  0  0  0  0  0  0
   -2.4393   -1.8768    0.0797 C   0  0  0  0  0  0  0  0  0  0  0  0
    0.0186   -2.2031   -0.2601 C   0  0  0  0  0  0  0  0  0  0  0  0
    1.3264   -1.7401   -0.3664 C   0  0  0  0  0  0  0  0  0  0  0  0
    3.3792    0.5652    0.5720 H   0  0  0  0  0  0  0  0  0  0  0  0
    3.1596    0.7747   -1.2175 H   0  0  0  0  0  0  0  0  0  0  0  0
    3.7398   -0.7875   -0.5511 H   0  0  0  0  0  0  0  0  0  0  0  0
    1.8146    2.3341    0.0505 H   0  0  0  0  0  0  0  0  0  0  0  0
   -0.0232    3.8799    0.4570 H   0  0  0  0  0  0  0  0  0  0  0  0
   -2.3434    3.0585    0.6455 H   0  0  0  0  0  0  0  0  0  0  0  0
   -2.8443    0.6848    0.4292 H   0  0  0  0  0  0  0  0  0  0  0  0
   -2.4546   -2.9803   -0.0476 H   0  0  0  0  0  0  0  0  0  0  0  0
   -2.8629   -1.6447    1.0794 H   0  0  0  0  0  0  0  0  0  0  0  0
   -3.0825   -1.4352   -0.7103 H   0  0  0  0  0  0  0  0  0  0  0  0
   -0.1644   -3.2659   -0.3621 H   0  0  0  0  0  0  0  0  0  0  0  0
    2.1168   -2.4583   -0.5475 H   0  0  0  0  0  0  0  0  0  0  0  0
  1  2  1  0
  2 12  2  0
  2  3  1  0
  3  4  2  0
  3  8  1  0
  4  5  1  0
  5  6  2  0
  6  7  1  0
  7  8  2  0
  8  9  1  0
  9 10  1  0
  9 11  2  0
 11 12  1  0
  1 13  1  0
  1 14  1  0
  1 15  1  0
  4 16  1  0
  5 17  1  0
  6 18  1  0
  7 19  1  0
 10 20  1  0
 10 21  1  0
 10 22  1  0
 11 23  1  0
 12 24  1  0
M  END
$$$$
