Cc1c(cccc2)c2cc(C)c1
     RDKit          3D

 24 25  0  0  0  0  0  0  0  0999 V2000
    0.1390    2.7609    0.3147 C   0  0  0  0  0  0  0  0  0  0  0  0
    0.3342    1.2751    0.1453 C   0  0  0  0  0  0  0  0  0  0  0  0
   -0.7638    0.3866    0.0131 C   0  0  0  0  0  0  0  0  0  0  0  0
   -2.1002    0.8418    0.0280 C   0  0  0  0  0  0  0  0  0  0  0  0
   -3.1594   -0.0604   -0.0991 C   0  0  0  0  0  0  0  0  0  0  0  0
   -2.9086   -1.4247   -0.2416 C   0  0  0  0  0  0  0  0  0  0  0  0
   -1.5960   -1.8976   -0.2591 C   0  0  0  0  0  0  0  0  0  0  0  0
   -0.5194   -1.0048   -0.1343 C   0  0  0  0  0  0  0  0  0  0  0  0
    0.7957   -1.4885   -0.1536 C   0  0  0  0  0  0  0  0  0  0  0  0
    1.8777   -0.6085   -0.0421 C   0  0  0  0  0  0  0  0  0  0  0  0
    3.2814   -1.1393   -0.0251 C   0  0  0  0  0  0  0  0  0  0  0  0
    1.6425    0.7622    0.1225 C   0  0  0  0  0  0  0  0  0  0  0  0
    1.1073    3.2977    0.4047 H   0  0  0  0  0  0  0  0  0  0  0  0
   -0.4481    2.9606    1.2357 H   0  0  0  0  0  0  0  0  0  0  0  0
   -0.3979    3.1725   -0.5656 H   0  0  0  0  0  0  0  0  0  0  0  0
   -2.3397    1.8908    0.1376 H   0  0  0  0  0  0  0  0  0  0  0  0
   -4.1798    0.3007   -0.0862 H   0  0  0  0  0  0  0  0  0  0  0  0
   -3.7340   -2.1180   -0.3390 H   0  0  0  0  0  0  0  0  0  0  0  0
   -1.4222   -2.9614   -0.3712 H   0  0  0  0  0  0  0  0  0  0  0  0
    0.9806   -2.5521   -0.2569 H   0  0  0  0  0  0  0  0  0  0  0  0
    3.3597   -2.0629   -0.6375 H   0  0  0  0  0  0  0  0  0  0  0  0
    3.5753   -1.3717    1.0197 H   0  0  0  0  0  0  0  0  0  0  0  0
    3.9888   -0.3916   -0.4429 H   0  0  0  0  0  0  0  0  0  0  0  0
    2.4869    1.4328    0.2326 H   0  0  0  0  0  0  0  0  0  0  0  0
  1  2  1  0
  2 12  2  0
  2  3  1  0
  3  4  2  0
  3  8  1  0
  4  5  1  0
  5  6  2  0
  6  7  1  0
  7  8  2  0
  8  9  1  0
  9 10  2  0
 10 11  1  0
 10 12  1  0
  1 13  1  0
  1 14  1  0
  1 15  1  0
  4 16  1  0
  5 17  1  0
  6 18  1  0
  7 19  1  0
  9 20  1  0
 11 21  1  0
 11 22  1  0
 11 23  1  0
 12 24  1  0
M  END
$$$$
