Cc1c(O)c(C)ccc1
     RDKit          3D

 19 19  0  0  0  0  0  0  0  0999 V2000
    2.3756   -0.9613    0.3636 C   0  0  0  0  0  0  0  0  0  0  0  0
    1.1652   -0.1025    0.1188 C   0  0  0  0  0  0  0  0  0  0  0  0
   -0.1279   -0.6692    0.0182 C   0  0  0  0  0  0  0  0  0  0  0  0
   -0.3310   -2.0474    0.1422 O   0  0  0  0  0  0  0  0  0  0  0  0
   -1.2416    0.1633   -0.2116 C   0  0  0  0  0  0  0  0  0  0  0  0
   -2.6189   -0.4290   -0.3200 C   0  0  0  0  0  0  0  0  0  0  0  0
   -1.0609    1.5490   -0.3391 C   0  0  0  0  0  0  0  0  0  0  0  0
    0.2138    2.1053   -0.2397 C   0  0  0  0  0  0  0  0  0  0  0  0
    1.3205    1.2874   -0.0124 C   0  0  0  0  0  0  0  0  0  0  0  0
    2.2647   -1.5009    1.3275 H   0  0  0  0  0  0  0  0  0  0  0  0
    2.4889   -1.6949   -0.4621 H   0  0  0  0  0  0  0  0  0  0  0  0
    3.3055   -0.3557    0.4145 H   0  0  0  0  0  0  0  0  0  0  0  0
    0.4195   -2.7056    0.3075 H   0  0  0  0  0  0  0  0  0  0  0  0
   -2.8736   -0.9578    0.6226 H   0  0  0  0  0  0  0  0  0  0  0  0
   -2.6499   -1.1513   -1.1627 H   0  0  0  0  0  0  0  0  0  0  0  0
   -3.3883    0.3517   -0.5010 H   0  0  0  0  0  0  0  0  0  0  0  0
   -1.9070    2.2015   -0.5159 H   0  0  0  0  0  0  0  0  0  0  0  0
    0.3448    3.1751   -0.3392 H   0  0  0  0  0  0  0  0  0  0  0  0
    2.3007    1.7422    0.0612 H   0  0  0  0  0  0  0  0  0  0  0  0
  1  2  1  0
  2  9  2  0
  2  3  1  0
  3  5  2  0
  3  4  1  0
  5  6  1  0
  5  7  1  0
  7  8  2  0
  8  9  1  0
  1 10  1  0
  1 11  1  0
  1 12  1  0
  4 13  1  0
  6 14  1  0
  6 15  1  0
  6 16  1  0
  7 17  1  0
  8 18  1  0
  9 19  1  0
M  END
$$$$
