OC(c2ccccc2)C(c1ccccc1)=O
     RDKit          3D

 28 29  0  0  1  0  0  0  0  0999 V2000
    0.7614   -1.6813    1.9054 O   0  0  0  0  0  0  0  0  0  0  0  0
    0.4729   -0.6003    1.0578 C   0  0  1  0  0  0  0  0  0  0  0  0
    1.7517    0.0326    0.5484 C   0  0  0  0  0  0  0  0  0  0  0  0
    2.8121   -0.7641    0.0764 C   0  0  0  0  0  0  0  0  0  0  0  0
    3.9846   -0.1701   -0.4002 C   0  0  0  0  0  0  0  0  0  0  0  0
    4.1102    1.2212   -0.4127 C   0  0  0  0  0  0  0  0  0  0  0  0
    3.0630    2.0214    0.0508 C   0  0  0  0  0  0  0  0  0  0  0  0
    1.8883    1.4324    0.5287 C   0  0  0  0  0  0  0  0  0  0  0  0
   -0.3679   -1.0861   -0.0983 C   0  0  0  0  0  0  0  0  0  0  0  0
   -1.7623   -0.6270   -0.3070 C   0  0  0  0  0  0  0  0  0  0  0  0
   -2.2688   -0.5081   -1.6141 C   0  0  0  0  0  0  0  0  0  0  0  0
   -3.5837   -0.0837   -1.8289 C   0  0  0  0  0  0  0  0  0  0  0  0
   -4.4092    0.2161   -0.7432 C   0  0  0  0  0  0  0  0  0  0  0  0
   -3.9232    0.0864    0.5597 C   0  0  0  0  0  0  0  0  0  0  0  0
   -2.6086   -0.3366    0.7803 C   0  0  0  0  0  0  0  0  0  0  0  0
    0.1340   -1.9037   -0.9179 O   0  0  0  0  0  0  0  0  0  0  0  0
    1.1216   -1.2972    2.7475 H   0  0  0  0  0  0  0  0  0  0  0  0
   -0.0969    0.1640    1.6325 H   0  0  0  0  0  0  0  0  0  0  0  0
    2.7312   -1.8439    0.0788 H   0  0  0  0  0  0  0  0  0  0  0  0
    4.7962   -0.7890   -0.7605 H   0  0  0  0  0  0  0  0  0  0  0  0
    5.0185    1.6792   -0.7824 H   0  0  0  0  0  0  0  0  0  0  0  0
    3.1608    3.0992    0.0384 H   0  0  0  0  0  0  0  0  0  0  0  0
    1.0848    2.0687    0.8785 H   0  0  0  0  0  0  0  0  0  0  0  0
   -1.6430   -0.7315   -2.4695 H   0  0  0  0  0  0  0  0  0  0  0  0
   -3.9626    0.0125   -2.8382 H   0  0  0  0  0  0  0  0  0  0  0  0
   -5.4273    0.5428   -0.9112 H   0  0  0  0  0  0  0  0  0  0  0  0
   -4.5683    0.3064    1.4006 H   0  0  0  0  0  0  0  0  0  0  0  0
   -2.2692   -0.4606    1.8002 H   0  0  0  0  0  0  0  0  0  0  0  0
  1  2  1  0
  2  3  1  0
  2  9  1  0
  3  8  1  0
  3  4  2  0
  4  5  1  0
  5  6  2  0
  6  7  1  0
  7  8  2  0
  9 10  1  0
  9 16  2  0
 10 15  1  0
 10 11  2  0
 11 12  1  0
 12 13  2  0
 13 14  1  0
 14 15  2  0
  1 17  1  0
  2 18  1  1
  4 19  1  0
  5 20  1  0
  6 21  1  0
  7 22  1  0
  8 23  1  0
 11 24  1  0
 12 25  1  0
 13 26  1  0
 14 27  1  0
 15 28  1  0
M  END
$$$$
