
     RDKit          3D

 34 35  0  0  0  0  0  0  0  0999 V2000
   -0.2742    2.1084   -0.5291 O   0  0  0  0  0  0  0  0  0  0  0  0
   -0.3923    0.8974   -0.2000 C   0  0  0  0  0  0  0  0  0  0  0  0
    0.6435    0.0587    0.0014 N   0  0  0  0  0  0  0  0  0  0  0  0
    2.0363    0.4089   -0.0870 C   0  0  0  0  0  0  0  0  0  0  0  0
    2.8982    0.1710    0.9958 C   0  0  0  0  0  0  0  0  0  0  0  0
    4.2485    0.5244    0.9120 C   0  0  0  0  0  0  0  0  0  0  0  0
    4.7450    1.1231   -0.2493 C   0  0  0  0  0  0  0  0  0  0  0  0
    3.8908    1.3721   -1.3273 C   0  0  0  0  0  0  0  0  0  0  0  0
    2.5399    1.0200   -1.2467 C   0  0  0  0  0  0  0  0  0  0  0  0
    0.1564   -1.1404    0.3164 N   0  0  0  0  0  0  0  0  0  0  0  0
    0.9597   -2.3405    0.5677 C   0  0  0  0  0  0  0  0  0  0  0  0
   -1.1992   -1.0671    0.3546 C   0  0  0  0  0  0  0  0  0  0  0  0
   -2.1152   -2.1958    0.7275 C   0  0  0  0  0  0  0  0  0  0  0  0
   -1.5808    0.2245    0.0061 C   0  0  0  0  0  0  0  0  0  0  0  0
   -2.9148    0.7490   -0.1448 N   0  0  0  0  0  0  0  0  0  0  0  0
   -3.9248   -0.0248   -0.8703 C   0  0  0  0  0  0  0  0  0  0  0  0
   -3.1883    2.1508    0.1743 C   0  0  0  0  0  0  0  0  0  0  0  0
    2.5208   -0.2773    1.9059 H   0  0  0  0  0  0  0  0  0  0  0  0
    4.9091    0.3380    1.7489 H   0  0  0  0  0  0  0  0  0  0  0  0
    5.7902    1.3967   -0.3127 H   0  0  0  0  0  0  0  0  0  0  0  0
    4.2755    1.8377   -2.2255 H   0  0  0  0  0  0  0  0  0  0  0  0
    1.8879    1.2122   -2.0893 H   0  0  0  0  0  0  0  0  0  0  0  0
    1.1152   -2.4639    1.6596 H   0  0  0  0  0  0  0  0  0  0  0  0
    1.9425   -2.2713    0.0580 H   0  0  0  0  0  0  0  0  0  0  0  0
    0.4487   -3.2389    0.1627 H   0  0  0  0  0  0  0  0  0  0  0  0
   -2.9541   -1.8134    1.3445 H   0  0  0  0  0  0  0  0  0  0  0  0
   -2.5117   -2.6741   -0.1918 H   0  0  0  0  0  0  0  0  0  0  0  0
   -1.5837   -2.9559    1.3351 H   0  0  0  0  0  0  0  0  0  0  0  0
   -3.4660   -0.5206   -1.7522 H   0  0  0  0  0  0  0  0  0  0  0  0
   -4.7433    0.6324   -1.2349 H   0  0  0  0  0  0  0  0  0  0  0  0
   -4.3718   -0.7887   -0.2038 H   0  0  0  0  0  0  0  0  0  0  0  0
   -2.5548    2.4858    1.0233 H   0  0  0  0  0  0  0  0  0  0  0  0
   -4.2502    2.2770    0.4750 H   0  0  0  0  0  0  0  0  0  0  0  0
   -2.9832    2.7844   -0.7140 H   0  0  0  0  0  0  0  0  0  0  0  0
  1  2  2  0
  2 14  1  0
  2  3  1  0
  3  4  1  0
  3 10  1  0
  4  9  1  0
  4  5  2  0
  5  6  1  0
  6  7  2  0
  7  8  1  0
  8  9  2  0
 10 11  1  0
 10 12  1  0
 12 13  1  0
 12 14  2  0
 14 15  1  0
 15 16  1  0
 15 17  1  0
  5 18  1  0
  6 19  1  0
  7 20  1  0
  8 21  1  0
  9 22  1  0
 11 23  1  0
 11 24  1  0
 11 25  1  0
 13 26  1  0
 13 27  1  0
 13 28  1  0
 16 29  1  0
 16 30  1  0
 16 31  1  0
 17 32  1  0
 17 33  1  0
 17 34  1  0
M  END
$$$$
