Cc1cc(cccc2)c2cc1C
     RDKit          3D

 24 25  0  0  0  0  0  0  0  0999 V2000
   -2.4801    1.7333   -0.5127 C   0  0  0  0  0  0  0  0  0  0  0  0
   -1.2962    0.8424   -0.2387 C   0  0  0  0  0  0  0  0  0  0  0  0
   -0.0088    1.2830   -0.5898 C   0  0  0  0  0  0  0  0  0  0  0  0
    1.1129    0.4789   -0.3486 C   0  0  0  0  0  0  0  0  0  0  0  0
    2.3987    0.9208   -0.7000 C   0  0  0  0  0  0  0  0  0  0  0  0
    3.5109    0.1106   -0.4549 C   0  0  0  0  0  0  0  0  0  0  0  0
    3.3496   -1.1428    0.1408 C   0  0  0  0  0  0  0  0  0  0  0  0
    2.0750   -1.5939    0.4952 C   0  0  0  0  0  0  0  0  0  0  0  0
    0.9497   -0.7892    0.2541 C   0  0  0  0  0  0  0  0  0  0  0  0
   -0.3324   -1.2316    0.6054 C   0  0  0  0  0  0  0  0  0  0  0  0
   -1.4597   -0.4277    0.3649 C   0  0  0  0  0  0  0  0  0  0  0  0
   -2.8236   -0.9352    0.7555 C   0  0  0  0  0  0  0  0  0  0  0  0
   -2.1746    2.6895   -0.9882 H   0  0  0  0  0  0  0  0  0  0  0  0
   -2.9988    1.9746    0.4385 H   0  0  0  0  0  0  0  0  0  0  0  0
   -3.1871    1.2210   -1.1982 H   0  0  0  0  0  0  0  0  0  0  0  0
    0.1202    2.2551   -1.0523 H   0  0  0  0  0  0  0  0  0  0  0  0
    2.5430    1.8898   -1.1628 H   0  0  0  0  0  0  0  0  0  0  0  0
    4.5002    0.4551   -0.7274 H   0  0  0  0  0  0  0  0  0  0  0  0
    4.2143   -1.7663    0.3284 H   0  0  0  0  0  0  0  0  0  0  0  0
    1.9692   -2.5687    0.9563 H   0  0  0  0  0  0  0  0  0  0  0  0
   -0.4538   -2.2049    1.0675 H   0  0  0  0  0  0  0  0  0  0  0  0
   -3.2846   -0.2473    1.4946 H   0  0  0  0  0  0  0  0  0  0  0  0
   -2.7711   -1.9454    1.2146 H   0  0  0  0  0  0  0  0  0  0  0  0
   -3.4730   -1.0009   -0.1422 H   0  0  0  0  0  0  0  0  0  0  0  0
  1  2  1  0
  2  3  2  0
  2 11  1  0
  3  4  1  0
  4  5  2  0
  4  9  1  0
  5  6  1  0
  6  7  2  0
  7  8  1  0
  8  9  2  0
  9 10  1  0
 10 11  2  0
 11 12  1  0
  1 13  1  0
  1 14  1  0
  1 15  1  0
  3 16  1  0
  5 17  1  0
  6 18  1  0
  7 19  1  0
  8 20  1  0
 10 21  1  0
 12 22  1  0
 12 23  1  0
 12 24  1  0
M  END
$$$$
