Brc(cccc1)c1Br
     RDKit          3D

 12 12  0  0  0  0  0  0  0  0999 V2000
    2.1084    2.4340   -0.1079 Br  0  0  0  0  0  0  0  0  0  0  0  0
    0.8452    0.9949   -0.0435 C   0  0  0  0  0  0  0  0  0  0  0  0
   -0.5205    1.3025   -0.0006 C   0  0  0  0  0  0  0  0  0  0  0  0
   -1.4720    0.2797    0.0470 C   0  0  0  0  0  0  0  0  0  0  0  0
   -1.0628   -1.0559    0.0520 C   0  0  0  0  0  0  0  0  0  0  0  0
    0.2984   -1.3705    0.0093 C   0  0  0  0  0  0  0  0  0  0  0  0
    1.2576   -0.3509   -0.0386 C   0  0  0  0  0  0  0  0  0  0  0  0
    3.1102   -0.8359   -0.0959 Br  0  0  0  0  0  0  0  0  0  0  0  0
   -0.8457    2.3350   -0.0041 H   0  0  0  0  0  0  0  0  0  0  0  0
   -2.5262    0.5226    0.0801 H   0  0  0  0  0  0  0  0  0  0  0  0
   -1.8001   -1.8474    0.0889 H   0  0  0  0  0  0  0  0  0  0  0  0
    0.6074   -2.4080    0.0134 H   0  0  0  0  0  0  0  0  0  0  0  0
  1  2  1  0
  2  3  2  0
  2  7  1  0
  3  4  1  0
  4  5  2  0
  5  6  1  0
  6  7  2  0
  7  8  1  0
  3  9  1  0
  4 10  1  0
  5 11  1  0
  6 12  1  0
M  END
$$$$
