Cc(ccnc1)c1C
     RDKit          3D

 17 17  0  0  0  0  0  0  0  0999 V2000
   -0.1991    1.9409   -0.0823 C   0  0  0  0  0  0  0  0  0  0  0  0
   -0.4480    0.4571   -0.0182 C   0  0  0  0  0  0  0  0  0  0  0  0
   -1.7669   -0.0225    0.0063 C   0  0  0  0  0  0  0  0  0  0  0  0
   -2.0036   -1.3957    0.0657 C   0  0  0  0  0  0  0  0  0  0  0  0
   -0.9624   -2.2660    0.0997 N   0  0  0  0  0  0  0  0  0  0  0  0
    0.3271   -1.8392    0.0776 C   0  0  0  0  0  0  0  0  0  0  0  0
    0.6216   -0.4671    0.0181 C   0  0  0  0  0  0  0  0  0  0  0  0
    2.0567   -0.0121   -0.0058 C   0  0  0  0  0  0  0  0  0  0  0  0
   -1.1497    2.5153   -0.1040 H   0  0  0  0  0  0  0  0  0  0  0  0
    0.3726    2.1878   -1.0012 H   0  0  0  0  0  0  0  0  0  0  0  0
    0.3781    2.2652    0.8087 H   0  0  0  0  0  0  0  0  0  0  0  0
   -2.6078    0.6594   -0.0202 H   0  0  0  0  0  0  0  0  0  0  0  0
   -3.0181   -1.7708    0.0849 H   0  0  0  0  0  0  0  0  0  0  0  0
    1.1225   -2.5728    0.1065 H   0  0  0  0  0  0  0  0  0  0  0  0
    2.7592   -0.8719    0.0288 H   0  0  0  0  0  0  0  0  0  0  0  0
    2.2617    0.6348    0.8726 H   0  0  0  0  0  0  0  0  0  0  0  0
    2.2562    0.5575   -0.9374 H   0  0  0  0  0  0  0  0  0  0  0  0
  1  2  1  0
  2  3  2  0
  2  7  1  0
  3  4  1  0
  4  5  2  0
  5  6  1  0
  6  7  2  0
  7  8  1  0
  1  9  1  0
  1 10  1  0
  1 11  1  0
  3 12  1  0
  4 13  1  0
  6 14  1  0
  8 15  1  0
  8 16  1  0
  8 17  1  0
M  END
$$$$
