CCC(O)CC
     RDKit          3D

 18 17  0  0  0  0  0  0  0  0999 V2000
   -1.4739   -0.9115   -1.0975 C   0  0  0  0  0  0  0  0  0  0  0  0
   -1.1363    0.4031   -0.3942 C   0  0  0  0  0  0  0  0  0  0  0  0
   -0.2980    0.2064    0.8886 C   0  0  0  0  0  0  0  0  0  0  0  0
   -0.1007    1.4475    1.5166 O   0  0  0  0  0  0  0  0  0  0  0  0
    1.0725   -0.4608    0.6478 C   0  0  0  0  0  0  0  0  0  0  0  0
    1.9821    0.3240   -0.2999 C   0  0  0  0  0  0  0  0  0  0  0  0
   -2.1994   -0.7167   -1.9153 H   0  0  0  0  0  0  0  0  0  0  0  0
   -1.9305   -1.6292   -0.3833 H   0  0  0  0  0  0  0  0  0  0  0  0
   -0.5641   -1.3613   -1.5464 H   0  0  0  0  0  0  0  0  0  0  0  0
   -2.0935    0.8955   -0.1156 H   0  0  0  0  0  0  0  0  0  0  0  0
   -0.6167    1.0828   -1.1021 H   0  0  0  0  0  0  0  0  0  0  0  0
   -0.8672   -0.4613    1.5779 H   0  0  0  0  0  0  0  0  0  0  0  0
   -0.9599    1.6930    1.9499 H   0  0  0  0  0  0  0  0  0  0  0  0
    1.5904   -0.5571    1.6270 H   0  0  0  0  0  0  0  0  0  0  0  0
    0.9360   -1.4914    0.2573 H   0  0  0  0  0  0  0  0  0  0  0  0
    2.0882    1.3764    0.0377 H   0  0  0  0  0  0  0  0  0  0  0  0
    1.5818    0.3038   -1.3346 H   0  0  0  0  0  0  0  0  0  0  0  0
    2.9892   -0.1435   -0.3138 H   0  0  0  0  0  0  0  0  0  0  0  0
  1  2  1  0
  2  3  1  0
  3  5  1  0
  3  4  1  0
  5  6  1  0
  1  7  1  0
  1  8  1  0
  1  9  1  0
  2 10  1  0
  2 11  1  0
  3 12  1  0
  4 13  1  0
  5 14  1  0
  5 15  1  0
  6 16  1  0
  6 17  1  0
  6 18  1  0
M  END
$$$$
