CC1CCC(C)CC1
     RDKit          3D

 24 24  0  0  0  0  0  0  0  0999 V2000
   -2.8934    0.0540   -0.2798 C   0  0  0  0  0  0  0  0  0  0  0  0
   -1.4769    0.0695    0.3045 C   0  0  2  0  0  0  0  0  0  0  0  0
   -0.6696    1.2509   -0.2664 C   0  0  0  0  0  0  0  0  0  0  0  0
    0.7591    1.2631    0.2919 C   0  0  0  0  0  0  0  0  0  0  0  0
    1.4769   -0.0695    0.0049 C   0  0  1  0  0  0  0  0  0  0  0  0
    2.8934   -0.0540    0.5891 C   0  0  0  0  0  0  0  0  0  0  0  0
    0.6696   -1.2509    0.5758 C   0  0  0  0  0  0  0  0  0  0  0  0
   -0.7591   -1.2631    0.0174 C   0  0  0  0  0  0  0  0  0  0  0  0
   -2.8622   -0.0718   -1.3835 H   0  0  0  0  0  0  0  0  0  0  0  0
   -3.4789   -0.7814    0.1600 H   0  0  0  0  0  0  0  0  0  0  0  0
   -3.4153    1.0053   -0.0417 H   0  0  0  0  0  0  0  0  0  0  0  0
   -1.5648    0.1971    1.4071 H   0  0  0  0  0  0  0  0  0  0  0  0
   -0.6296    1.1854   -1.3766 H   0  0  0  0  0  0  0  0  0  0  0  0
   -1.1673    2.2081    0.0026 H   0  0  0  0  0  0  0  0  0  0  0  0
    1.3206    2.0990   -0.1795 H   0  0  0  0  0  0  0  0  0  0  0  0
    0.7234    1.4494    1.3885 H   0  0  0  0  0  0  0  0  0  0  0  0
    1.5648   -0.1971   -1.0978 H   0  0  0  0  0  0  0  0  0  0  0  0
    3.4153   -1.0053    0.3511 H   0  0  0  0  0  0  0  0  0  0  0  0
    2.8622    0.0718    1.6929 H   0  0  0  0  0  0  0  0  0  0  0  0
    3.4789    0.7814    0.1493 H   0  0  0  0  0  0  0  0  0  0  0  0
    0.6296   -1.1854    1.6860 H   0  0  0  0  0  0  0  0  0  0  0  0
    1.1673   -2.2081    0.3068 H   0  0  0  0  0  0  0  0  0  0  0  0
   -0.7234   -1.4494   -1.0792 H   0  0  0  0  0  0  0  0  0  0  0  0
   -1.3206   -2.0990    0.4889 H   0  0  0  0  0  0  0  0  0  0  0  0
  1  2  1  0
  2  3  1  0
  2  8  1  0
  3  4  1  0
  4  5  1  0
  5  6  1  0
  5  7  1  0
  7  8  1  0
  1  9  1  0
  1 10  1  0
  1 11  1  0
  2 12  1  1
  3 13  1  0
  3 14  1  0
  4 15  1  0
  4 16  1  0
  5 17  1  6
  6 18  1  0
  6 19  1  0
  6 20  1  0
  7 21  1  0
  7 22  1  0
  8 23  1  0
  8 24  1  0
M  END
$$$$
