CCC(O)CCCC
     RDKit          3D

 24 23  0  0  1  0  0  0  0  0999 V2000
   -3.2825    0.9349   -0.3464 C   0  0  0  0  0  0  0  0  0  0  0  0
   -1.7625    0.8106   -0.4341 C   0  0  0  0  0  0  0  0  0  0  0  0
   -1.2500   -0.4795    0.2371 C   0  0  1  0  0  0  0  0  0  0  0  0
   -1.6329   -1.6057   -0.5124 O   0  0  0  0  0  0  0  0  0  0  0  0
    0.2816   -0.4719    0.4100 C   0  0  0  0  0  0  0  0  0  0  0  0
    1.0512   -0.4198   -0.9241 C   0  0  0  0  0  0  0  0  0  0  0  0
    2.5590   -0.6530   -0.7421 C   0  0  0  0  0  0  0  0  0  0  0  0
    3.2535    0.5042   -0.0249 C   0  0  0  0  0  0  0  0  0  0  0  0
   -3.6125    0.9182    0.7141 H   0  0  0  0  0  0  0  0  0  0  0  0
   -3.6021    1.8964   -0.8006 H   0  0  0  0  0  0  0  0  0  0  0  0
   -3.7740    0.1065   -0.8988 H   0  0  0  0  0  0  0  0  0  0  0  0
   -1.4676    0.8273   -1.5053 H   0  0  0  0  0  0  0  0  0  0  0  0
   -1.3115    1.6959    0.0652 H   0  0  0  0  0  0  0  0  0  0  0  0
   -1.6818   -0.5404    1.2653 H   0  0  0  0  0  0  0  0  0  0  0  0
   -2.5283   -1.8844   -0.1868 H   0  0  0  0  0  0  0  0  0  0  0  0
    0.5708   -1.3927    0.9627 H   0  0  0  0  0  0  0  0  0  0  0  0
    0.5661    0.3982    1.0399 H   0  0  0  0  0  0  0  0  0  0  0  0
    0.6652   -1.2108   -1.6026 H   0  0  0  0  0  0  0  0  0  0  0  0
    0.8905    0.5610   -1.4211 H   0  0  0  0  0  0  0  0  0  0  0  0
    3.0203   -0.7669   -1.7471 H   0  0  0  0  0  0  0  0  0  0  0  0
    2.7358   -1.5976   -0.1833 H   0  0  0  0  0  0  0  0  0  0  0  0
    2.9161    0.5716    1.0301 H   0  0  0  0  0  0  0  0  0  0  0  0
    4.3507    0.3334   -0.0261 H   0  0  0  0  0  0  0  0  0  0  0  0
    3.0450    1.4643   -0.5430 H   0  0  0  0  0  0  0  0  0  0  0  0
  1  2  1  0
  2  3  1  0
  3  5  1  0
  3  4  1  0
  5  6  1  0
  6  7  1  0
  7  8  1  0
  1  9  1  0
  1 10  1  0
  1 11  1  0
  2 12  1  0
  2 13  1  0
  3 14  1  1
  4 15  1  0
  5 16  1  0
  5 17  1  0
  6 18  1  0
  6 19  1  0
  7 20  1  0
  7 21  1  0
  8 22  1  0
  8 23  1  0
  8 24  1  0
M  END
$$$$
