OCc1ccc(C)cc1
     RDKit          3D

 19 19  0  0  0  0  0  0  0  0999 V2000
    3.4448    0.4381    0.4547 O   0  0  0  0  0  0  0  0  0  0  0  0
    2.6716   -0.5629   -0.1526 C   0  0  0  0  0  0  0  0  0  0  0  0
    1.1900   -0.2800   -0.0629 C   0  0  0  0  0  0  0  0  0  0  0  0
    0.6774    0.8477    0.6068 C   0  0  0  0  0  0  0  0  0  0  0  0
   -0.7022    1.0676    0.6673 C   0  0  0  0  0  0  0  0  0  0  0  0
   -1.5903    0.1735    0.0524 C   0  0  0  0  0  0  0  0  0  0  0  0
   -3.0712    0.3898    0.1525 C   0  0  0  0  0  0  0  0  0  0  0  0
   -1.0841   -0.9616   -0.5967 C   0  0  0  0  0  0  0  0  0  0  0  0
    0.2947   -1.1828   -0.6580 C   0  0  0  0  0  0  0  0  0  0  0  0
    3.5064    1.1843   -0.1976 H   0  0  0  0  0  0  0  0  0  0  0  0
    2.9657   -0.6783   -1.2211 H   0  0  0  0  0  0  0  0  0  0  0  0
    2.8817   -1.5257    0.3592 H   0  0  0  0  0  0  0  0  0  0  0  0
    1.3351    1.5581    1.0902 H   0  0  0  0  0  0  0  0  0  0  0  0
   -1.0776    1.9360    1.1948 H   0  0  0  0  0  0  0  0  0  0  0  0
   -3.4558   -0.1070    1.0676 H   0  0  0  0  0  0  0  0  0  0  0  0
   -3.5898   -0.0327   -0.7344 H   0  0  0  0  0  0  0  0  0  0  0  0
   -3.3062    1.4744    0.2029 H   0  0  0  0  0  0  0  0  0  0  0  0
   -1.7566   -1.6758   -1.0560 H   0  0  0  0  0  0  0  0  0  0  0  0
    0.6665   -2.0626   -1.1692 H   0  0  0  0  0  0  0  0  0  0  0  0
  1  2  1  0
  2  3  1  0
  3  9  2  0
  3  4  1  0
  4  5  2  0
  5  6  1  0
  6  7  1  0
  6  8  2  0
  8  9  1  0
  1 10  1  0
  2 11  1  0
  2 12  1  0
  4 13  1  0
  5 14  1  0
  7 15  1  0
  7 16  1  0
  7 17  1  0
  8 18  1  0
  9 19  1  0
M  END
$$$$
