
     RDKit          3D

 18 19  0  0  0  0  0  0  0  0999 V2000
   -2.4206   -0.6974   -0.0991 C   0  0  0  0  0  0  0  0  0  0  0  0
   -2.4254    0.7002   -0.1276 C   0  0  0  0  0  0  0  0  0  0  0  0
   -1.2211    1.4089   -0.0856 C   0  0  0  0  0  0  0  0  0  0  0  0
   -0.0022    0.7176   -0.0146 C   0  0  0  0  0  0  0  0  0  0  0  0
    1.2166    1.4043    0.0285 C   0  0  0  0  0  0  0  0  0  0  0  0
    2.4130    0.6904    0.0989 C   0  0  0  0  0  0  0  0  0  0  0  0
    2.3828   -0.7073    0.1257 C   0  0  0  0  0  0  0  0  0  0  0  0
    3.4616   -1.3552    0.1893 O   0  0  0  0  0  0  0  0  0  0  0  0
    1.1919   -1.3694    0.0834 N   0  0  0  0  0  0  0  0  0  0  0  0
    0.0054   -0.6969    0.0144 C   0  0  0  0  0  0  0  0  0  0  0  0
   -1.2115   -1.3958   -0.0284 C   0  0  0  0  0  0  0  0  0  0  0  0
   -3.3562   -1.2405   -0.1319 H   0  0  0  0  0  0  0  0  0  0  0  0
   -3.3647    1.2353   -0.1823 H   0  0  0  0  0  0  0  0  0  0  0  0
   -1.2419    2.4919   -0.1085 H   0  0  0  0  0  0  0  0  0  0  0  0
    1.2438    2.4872    0.0079 H   0  0  0  0  0  0  0  0  0  0  0  0
    3.3569    1.2207    0.1323 H   0  0  0  0  0  0  0  0  0  0  0  0
    1.1959   -2.4153    0.1048 H   0  0  0  0  0  0  0  0  0  0  0  0
   -1.2242   -2.4785   -0.0071 H   0  0  0  0  0  0  0  0  0  0  0  0
  1 11  2  0
  1  2  1  0
  2  3  2  0
  3  4  1  0
  4 10  2  0
  4  5  1  0
  5  6  2  0
  6  7  1  0
  7  9  1  0
  7  8  2  0
  9 10  1  0
 10 11  1  0
  1 12  1  0
  2 13  1  0
  3 14  1  0
  5 15  1  0
  6 16  1  0
  9 17  1  0
 11 18  1  0
M  END
$$$$
