O=C(c(cc1)ccc1N)OCCN(CC)CC
     RDKit          3D

 37 37  0  0  0  0  0  0  0  0999 V2000
    1.2435    0.1975   -1.5851 O   0  0  0  0  0  0  0  0  0  0  0  0
    1.5802   -0.3521   -0.4998 C   0  0  0  0  0  0  0  0  0  0  0  0
    2.9319   -0.1267    0.0577 C   0  0  0  0  0  0  0  0  0  0  0  0
    3.8560    0.6982   -0.6094 C   0  0  0  0  0  0  0  0  0  0  0  0
    5.1316    0.9084   -0.0768 C   0  0  0  0  0  0  0  0  0  0  0  0
    3.3111   -0.7350    1.2672 C   0  0  0  0  0  0  0  0  0  0  0  0
    4.5873   -0.5231    1.7976 C   0  0  0  0  0  0  0  0  0  0  0  0
    5.5033    0.2990    1.1285 C   0  0  0  0  0  0  0  0  0  0  0  0
    6.8082    0.5148    1.6722 N   0  0  0  0  0  0  0  0  0  0  0  0
    0.6773   -1.1825    0.1768 O   0  0  0  0  0  0  0  0  0  0  0  0
   -0.6622   -1.4070   -0.2586 C   0  0  0  0  0  0  0  0  0  0  0  0
   -1.5432   -0.1994    0.0672 C   0  0  0  0  0  0  0  0  0  0  0  0
   -2.9411   -0.4771   -0.3350 N   0  0  0  0  0  0  0  0  0  0  0  0
   -3.2324   -0.0279   -1.7211 C   0  0  0  0  0  0  0  0  0  0  0  0
   -3.4727    1.4831   -1.8640 C   0  0  0  0  0  0  0  0  0  0  0  0
   -3.9181   -0.0265    0.6820 C   0  0  0  0  0  0  0  0  0  0  0  0
   -5.3179   -0.5794    0.4117 C   0  0  0  0  0  0  0  0  0  0  0  0
    3.5943    1.1815   -1.5424 H   0  0  0  0  0  0  0  0  0  0  0  0
    5.8300    1.5463   -0.6039 H   0  0  0  0  0  0  0  0  0  0  0  0
    2.6229   -1.3746    1.8053 H   0  0  0  0  0  0  0  0  0  0  0  0
    4.8620   -0.9998    2.7302 H   0  0  0  0  0  0  0  0  0  0  0  0
    7.0944    0.0648    2.5703 H   0  0  0  0  0  0  0  0  0  0  0  0
    7.4978    1.1261    1.1807 H   0  0  0  0  0  0  0  0  0  0  0  0
   -1.0599   -2.2954    0.2765 H   0  0  0  0  0  0  0  0  0  0  0  0
   -0.6770   -1.6294   -1.3473 H   0  0  0  0  0  0  0  0  0  0  0  0
   -1.1404    0.7032   -0.4385 H   0  0  0  0  0  0  0  0  0  0  0  0
   -1.4584   -0.0113    1.1611 H   0  0  0  0  0  0  0  0  0  0  0  0
   -2.3948   -0.3146   -2.3939 H   0  0  0  0  0  0  0  0  0  0  0  0
   -4.1199   -0.5724   -2.1067 H   0  0  0  0  0  0  0  0  0  0  0  0
   -4.4496    1.7711   -1.4242 H   0  0  0  0  0  0  0  0  0  0  0  0
   -2.6669    2.0733   -1.3835 H   0  0  0  0  0  0  0  0  0  0  0  0
   -3.5002    1.7473   -2.9421 H   0  0  0  0  0  0  0  0  0  0  0  0
   -3.6172   -0.4153    1.6802 H   0  0  0  0  0  0  0  0  0  0  0  0
   -3.9442    1.0818    0.7572 H   0  0  0  0  0  0  0  0  0  0  0  0
   -5.9725   -0.3750    1.2852 H   0  0  0  0  0  0  0  0  0  0  0  0
   -5.7722   -0.0946   -0.4765 H   0  0  0  0  0  0  0  0  0  0  0  0
   -5.2711   -1.6773    0.2509 H   0  0  0  0  0  0  0  0  0  0  0  0
  1  2  2  0
  2  3  1  0
  2 10  1  0
  3  4  2  0
  3  6  1  0
  4  5  1  0
  5  8  2  0
  6  7  2  0
  7  8  1  0
  8  9  1  0
 10 11  1  0
 11 12  1  0
 12 13  1  0
 13 14  1  0
 13 16  1  0
 14 15  1  0
 16 17  1  0
  4 18  1  0
  5 19  1  0
  6 20  1  0
  7 21  1  0
  9 22  1  0
  9 23  1  0
 11 24  1  0
 11 25  1  0
 12 26  1  0
 12 27  1  0
 14 28  1  0
 14 29  1  0
 15 30  1  0
 15 31  1  0
 15 32  1  0
 16 33  1  0
 16 34  1  0
 17 35  1  0
 17 36  1  0
 17 37  1  0
M  END
$$$$
