O=C(O)c1cnccc1
     RDKit          3D

 14 14  0  0  0  0  0  0  0  0999 V2000
    2.4156   -0.5919    1.6743 O   0  0  0  0  0  0  0  0  0  0  0  0
    1.9284    0.0766    0.7241 C   0  0  0  0  0  0  0  0  0  0  0  0
    2.7473    0.9978    0.0718 O   0  0  0  0  0  0  0  0  0  0  0  0
    0.5185   -0.1421    0.3183 C   0  0  0  0  0  0  0  0  0  0  0  0
   -0.1443   -1.3309    0.6728 C   0  0  0  0  0  0  0  0  0  0  0  0
   -1.4380   -1.5335    0.3060 N   0  0  0  0  0  0  0  0  0  0  0  0
   -2.1345   -0.6062   -0.4013 C   0  0  0  0  0  0  0  0  0  0  0  0
   -1.5256    0.5941   -0.7670 C   0  0  0  0  0  0  0  0  0  0  0  0
   -0.1978    0.8279   -0.4044 C   0  0  0  0  0  0  0  0  0  0  0  0
    2.4563    1.4947   -0.7598 H   0  0  0  0  0  0  0  0  0  0  0  0
    0.3677   -2.1030    1.2326 H   0  0  0  0  0  0  0  0  0  0  0  0
   -3.1631   -0.7991   -0.6754 H   0  0  0  0  0  0  0  0  0  0  0  0
   -2.0802    1.3403   -1.3213 H   0  0  0  0  0  0  0  0  0  0  0  0
    0.2496    1.7753   -0.6708 H   0  0  0  0  0  0  0  0  0  0  0  0
  1  2  2  0
  2  4  1  0
  2  3  1  0
  4  9  2  0
  4  5  1  0
  5  6  2  0
  6  7  1  0
  7  8  2  0
  8  9  1  0
  3 10  1  0
  5 11  1  0
  7 12  1  0
  8 13  1  0
  9 14  1  0
M  END
$$$$
