BrC=CBr
     RDKit          3D

  6  5  0  0  0  0  0  0  0  0999 V2000
    1.7441    1.3440   -0.0271 Br  0  0  0  0  0  0  0  0  0  0  0  0
    0.6624   -0.2386   -0.0116 C   0  0  0  0  0  0  0  0  0  0  0  0
   -0.6739   -0.2036    0.0110 C   0  0  0  0  0  0  0  0  0  0  0  0
   -1.6714    1.4334    0.0307 Br  0  0  0  0  0  0  0  0  0  0  0  0
    1.1677   -1.1990   -0.0218 H   0  0  0  0  0  0  0  0  0  0  0  0
   -1.2289   -1.1363    0.0188 H   0  0  0  0  0  0  0  0  0  0  0  0
  1  2  1  0
  2  3  2  0
  3  4  1  0
  2  5  1  0
  3  6  1  0
M  END
$$$$
