CC(C)(O)CCC
     RDKit          3D

 21 20  0  0  0  0  0  0  0  0999 V2000
   -1.4391    1.3525    0.5326 C   0  0  0  0  0  0  0  0  0  0  0  0
   -1.1579   -0.1354    0.2608 C   0  0  0  0  0  0  0  0  0  0  0  0
   -1.5285   -0.4667   -1.2004 C   0  0  0  0  0  0  0  0  0  0  0  0
   -1.9883   -0.8786    1.1225 O   0  0  0  0  0  0  0  0  0  0  0  0
    0.3259   -0.4907    0.5712 C   0  0  0  0  0  0  0  0  0  0  0  0
    1.3701    0.2830   -0.2554 C   0  0  0  0  0  0  0  0  0  0  0  0
    2.7865   -0.1565    0.1062 C   0  0  0  0  0  0  0  0  0  0  0  0
   -0.9221    2.0061   -0.2010 H   0  0  0  0  0  0  0  0  0  0  0  0
   -1.1091    1.6290    1.5569 H   0  0  0  0  0  0  0  0  0  0  0  0
   -2.5293    1.5543    0.4552 H   0  0  0  0  0  0  0  0  0  0  0  0
   -2.6242   -0.3564   -1.3490 H   0  0  0  0  0  0  0  0  0  0  0  0
   -1.2489   -1.5135   -1.4463 H   0  0  0  0  0  0  0  0  0  0  0  0
   -1.0180    0.2145   -1.9130 H   0  0  0  0  0  0  0  0  0  0  0  0
   -1.8442   -1.8435    0.9342 H   0  0  0  0  0  0  0  0  0  0  0  0
    0.4770   -1.5797    0.3996 H   0  0  0  0  0  0  0  0  0  0  0  0
    0.5169   -0.3043    1.6514 H   0  0  0  0  0  0  0  0  0  0  0  0
    1.2871    1.3723   -0.0600 H   0  0  0  0  0  0  0  0  0  0  0  0
    1.2172    0.1007   -1.3394 H   0  0  0  0  0  0  0  0  0  0  0  0
    3.5200    0.4167   -0.4993 H   0  0  0  0  0  0  0  0  0  0  0  0
    2.9212   -1.2388   -0.1053 H   0  0  0  0  0  0  0  0  0  0  0  0
    2.9877    0.0350    1.1818 H   0  0  0  0  0  0  0  0  0  0  0  0
  1  2  1  0
  2  3  1  0
  2  5  1  0
  2  4  1  0
  5  6  1  0
  6  7  1  0
  1  8  1  0
  1  9  1  0
  1 10  1  0
  3 11  1  0
  3 12  1  0
  3 13  1  0
  4 14  1  0
  5 15  1  0
  5 16  1  0
  6 17  1  0
  6 18  1  0
  7 19  1  0
  7 20  1  0
  7 21  1  0
M  END
$$$$
