O=C(N1C(C)(C)C)C(Cl)=C(C)NC1=O
     RDKit          3D

 27 27  0  0  0  0  0  0  0  0999 V2000
   -0.0510    1.8531    1.1745 O   0  0  0  0  0  0  0  0  0  0  0  0
    0.5397    0.9395    0.5388 C   0  0  0  0  0  0  0  0  0  0  0  0
   -0.1732   -0.0615   -0.1071 N   0  0  0  0  0  0  0  0  0  0  0  0
   -1.6927   -0.0063   -0.1102 C   0  0  0  0  0  0  0  0  0  0  0  0
   -2.3866   -1.0827   -0.9928 C   0  0  0  0  0  0  0  0  0  0  0  0
   -2.1843    1.3596   -0.6681 C   0  0  0  0  0  0  0  0  0  0  0  0
   -2.2262   -0.2098    1.3273 C   0  0  0  0  0  0  0  0  0  0  0  0
    1.9384    0.9724    0.5234 C   0  0  0  0  0  0  0  0  0  0  0  0
    2.8014    2.2820    1.3383 Cl  0  0  0  0  0  0  0  0  0  0  0  0
    2.6294   -0.0423   -0.1302 C   0  0  0  0  0  0  0  0  0  0  0  0
    4.1334   -0.0548   -0.1719 C   0  0  0  0  0  0  0  0  0  0  0  0
    1.9275   -1.0493   -0.7020 N   0  0  0  0  0  0  0  0  0  0  0  0
    0.5669   -1.0859   -0.6884 C   0  0  0  0  0  0  0  0  0  0  0  0
    0.0173   -2.0895   -1.2110 O   0  0  0  0  0  0  0  0  0  0  0  0
   -2.2489   -2.1043   -0.5782 H   0  0  0  0  0  0  0  0  0  0  0  0
   -3.4877   -0.9285   -1.0188 H   0  0  0  0  0  0  0  0  0  0  0  0
   -2.0294   -1.0279   -2.0440 H   0  0  0  0  0  0  0  0  0  0  0  0
   -2.0610    2.1938    0.0485 H   0  0  0  0  0  0  0  0  0  0  0  0
   -3.2715    1.3408   -0.8992 H   0  0  0  0  0  0  0  0  0  0  0  0
   -1.6374    1.6066   -1.6032 H   0  0  0  0  0  0  0  0  0  0  0  0
   -1.9304    0.6103    2.0099 H   0  0  0  0  0  0  0  0  0  0  0  0
   -1.8366   -1.1630    1.7447 H   0  0  0  0  0  0  0  0  0  0  0  0
   -3.3373   -0.2508    1.3353 H   0  0  0  0  0  0  0  0  0  0  0  0
    4.5074    0.8919   -0.6155 H   0  0  0  0  0  0  0  0  0  0  0  0
    4.5140   -0.8965   -0.7878 H   0  0  0  0  0  0  0  0  0  0  0  0
    4.5357   -0.1637    0.8572 H   0  0  0  0  0  0  0  0  0  0  0  0
    2.4432   -1.8333   -1.1646 H   0  0  0  0  0  0  0  0  0  0  0  0
  1  2  2  0
  2  8  1  0
  2  3  1  0
  3  4  1  0
  3 13  1  0
  4  5  1  0
  4  6  1  0
  4  7  1  0
  8 10  2  0
  8  9  1  0
 10 11  1  0
 10 12  1  0
 12 13  1  0
 13 14  2  0
  5 15  1  0
  5 16  1  0
  5 17  1  0
  6 18  1  0
  6 19  1  0
  6 20  1  0
  7 21  1  0
  7 22  1  0
  7 23  1  0
 11 24  1  0
 11 25  1  0
 11 26  1  0
 12 27  1  0
M  END
$$$$
