C=CCC=C
     RDKit          3D

 13 12  0  0  0  0  0  0  0  0999 V2000
   -2.1390   -0.0983    0.1089 C   0  0  0  0  0  0  0  0  0  0  0  0
   -1.1003   -0.4049   -0.6746 C   0  0  0  0  0  0  0  0  0  0  0  0
    0.2362   -0.7859   -0.1038 C   0  0  0  0  0  0  0  0  0  0  0  0
    0.8950    0.4035    0.5415 C   0  0  0  0  0  0  0  0  0  0  0  0
    2.0441    0.9109    0.0856 C   0  0  0  0  0  0  0  0  0  0  0  0
   -3.0959    0.1584   -0.3338 H   0  0  0  0  0  0  0  0  0  0  0  0
   -2.0437   -0.1034    1.1905 H   0  0  0  0  0  0  0  0  0  0  0  0
   -1.2341   -0.4095   -1.7524 H   0  0  0  0  0  0  0  0  0  0  0  0
    0.8689   -1.1932   -0.9225 H   0  0  0  0  0  0  0  0  0  0  0  0
    0.1081   -1.5899    0.6523 H   0  0  0  0  0  0  0  0  0  0  0  0
    0.4233    0.8616    1.4061 H   0  0  0  0  0  0  0  0  0  0  0  0
    2.4903    1.7688    0.5780 H   0  0  0  0  0  0  0  0  0  0  0  0
    2.5469    0.4820   -0.7757 H   0  0  0  0  0  0  0  0  0  0  0  0
  1  2  2  3
  2  3  1  0
  3  4  1  0
  4  5  2  3
  1  6  1  0
  1  7  1  0
  2  8  1  0
  3  9  1  0
  3 10  1  0
  4 11  1  0
  5 12  1  0
  5 13  1  0
M  END
$$$$
