Cc1cc(Br)ccc1
     RDKit          3D

 15 15  0  0  0  0  0  0  0  0999 V2000
   -2.2308    0.2708    0.1118 C   0  0  0  0  0  0  0  0  0  0  0  0
   -0.7464    0.0675    0.0372 C   0  0  0  0  0  0  0  0  0  0  0  0
    0.1301    1.1652    0.0049 C   0  0  0  0  0  0  0  0  0  0  0  0
    1.5130    0.9600   -0.0647 C   0  0  0  0  0  0  0  0  0  0  0  0
    2.6999    2.4558   -0.1083 Br  0  0  0  0  0  0  0  0  0  0  0  0
    2.0260   -0.3407   -0.1025 C   0  0  0  0  0  0  0  0  0  0  0  0
    1.1586   -1.4360   -0.0706 C   0  0  0  0  0  0  0  0  0  0  0  0
   -0.2233   -1.2343   -0.0010 C   0  0  0  0  0  0  0  0  0  0  0  0
   -2.4941    1.3497    0.1351 H   0  0  0  0  0  0  0  0  0  0  0  0
   -2.7153   -0.1904   -0.7745 H   0  0  0  0  0  0  0  0  0  0  0  0
   -2.6269   -0.2079    1.0320 H   0  0  0  0  0  0  0  0  0  0  0  0
   -0.2571    2.1762    0.0337 H   0  0  0  0  0  0  0  0  0  0  0  0
    3.0948   -0.5032   -0.1563 H   0  0  0  0  0  0  0  0  0  0  0  0
    1.5571   -2.4419   -0.0999 H   0  0  0  0  0  0  0  0  0  0  0  0
   -0.8857   -2.0909    0.0231 H   0  0  0  0  0  0  0  0  0  0  0  0
  1  2  1  0
  2  8  2  0
  2  3  1  0
  3  4  2  0
  4  6  1  0
  4  5  1  0
  6  7  2  0
  7  8  1  0
  1  9  1  0
  1 10  1  0
  1 11  1  0
  3 12  1  0
  6 13  1  0
  7 14  1  0
  8 15  1  0
M  END
$$$$
