C=CCCC=C
     RDKit          3D

 16 15  0  0  0  0  0  0  0  0999 V2000
    2.4110   -0.6115    0.9755 C   0  0  0  0  0  0  0  0  0  0  0  0
    1.9153   -0.1291   -0.1659 C   0  0  0  0  0  0  0  0  0  0  0  0
    0.6486    0.6777   -0.1772 C   0  0  0  0  0  0  0  0  0  0  0  0
   -0.5681   -0.1924    0.1579 C   0  0  0  0  0  0  0  0  0  0  0  0
   -1.8401    0.6092    0.1061 C   0  0  0  0  0  0  0  0  0  0  0  0
   -3.0197    0.0395    0.3636 C   0  0  0  0  0  0  0  0  0  0  0  0
    3.3344   -1.1813    0.9773 H   0  0  0  0  0  0  0  0  0  0  0  0
    3.3344   -1.1813    0.9773 H   0  0  0  0  0  0  0  0  0  0  0  0
    2.4482   -0.2947   -1.0985 H   0  0  0  0  0  0  0  0  0  0  0  0
    0.7350    1.5131    0.5523 H   0  0  0  0  0  0  0  0  0  0  0  0
    0.5176    1.1156   -1.1909 H   0  0  0  0  0  0  0  0  0  0  0  0
   -0.6363   -1.0289   -0.5722 H   0  0  0  0  0  0  0  0  0  0  0  0
   -0.4525   -0.6185    1.1787 H   0  0  0  0  0  0  0  0  0  0  0  0
   -1.8114    1.6669   -0.1427 H   0  0  0  0  0  0  0  0  0  0  0  0
   -3.9291    0.6303    0.3226 H   0  0  0  0  0  0  0  0  0  0  0  0
   -3.0871   -1.0146    0.6158 H   0  0  0  0  0  0  0  0  0  0  0  0
  1  2  2  3
  2  3  1  0
  3  4  1  0
  4  5  1  0
  5  6  2  3
  1  7  1  0
  1  8  1  0
  2  9  1  0
  3 10  1  0
  3 11  1  0
  4 12  1  0
  4 13  1  0
  5 14  1  0
  6 15  1  0
  6 16  1  0
M  END
$$$$
