CC(C)(O)C(C)C
     RDKit          3D

 21 20  0  0  0  0  0  0  0  0999 V2000
   -1.1627    0.0205    1.2437 C   0  0  0  0  0  0  0  0  0  0  0  0
   -0.7322    0.1705   -0.2349 C   0  0  0  0  0  0  0  0  0  0  0  0
   -1.3352   -0.9911   -1.0575 C   0  0  0  0  0  0  0  0  0  0  0  0
   -1.2420    1.3833   -0.7439 O   0  0  0  0  0  0  0  0  0  0  0  0
    0.8283    0.2056   -0.3984 C   0  0  0  0  0  0  0  0  0  0  0  0
    1.4669    1.4334    0.2774 C   0  0  0  0  0  0  0  0  0  0  0  0
    1.5492   -1.0709    0.0761 C   0  0  0  0  0  0  0  0  0  0  0  0
   -0.8055    0.8767    1.8515 H   0  0  0  0  0  0  0  0  0  0  0  0
   -0.7828   -0.9240    1.6842 H   0  0  0  0  0  0  0  0  0  0  0  0
   -2.2710   -0.0007    1.3210 H   0  0  0  0  0  0  0  0  0  0  0  0
   -2.4443   -0.9236   -1.0708 H   0  0  0  0  0  0  0  0  0  0  0  0
   -0.9771   -0.9519   -2.1084 H   0  0  0  0  0  0  0  0  0  0  0  0
   -1.0725   -1.9774   -0.6215 H   0  0  0  0  0  0  0  0  0  0  0  0
   -2.2285    1.3863   -0.6258 H   0  0  0  0  0  0  0  0  0  0  0  0
    1.0416    0.3052   -1.4867 H   0  0  0  0  0  0  0  0  0  0  0  0
    0.9715    2.3714   -0.0495 H   0  0  0  0  0  0  0  0  0  0  0  0
    1.4093    1.3583    1.3833 H   0  0  0  0  0  0  0  0  0  0  0  0
    2.5388    1.5059   -0.0061 H   0  0  0  0  0  0  0  0  0  0  0  0
    1.1896   -1.9646   -0.4720 H   0  0  0  0  0  0  0  0  0  0  0  0
    1.4207   -1.2278    1.1667 H   0  0  0  0  0  0  0  0  0  0  0  0
    2.6379   -0.9853   -0.1284 H   0  0  0  0  0  0  0  0  0  0  0  0
  1  2  1  0
  2  3  1  0
  2  5  1  0
  2  4  1  0
  5  7  1  0
  5  6  1  0
  1  8  1  0
  1  9  1  0
  1 10  1  0
  3 11  1  0
  3 12  1  0
  3 13  1  0
  4 14  1  0
  5 15  1  0
  6 16  1  0
  6 17  1  0
  6 18  1  0
  7 19  1  0
  7 20  1  0
  7 21  1  0
M  END
$$$$
