CC(C)(Cl)CC
     RDKit          3D

 17 16  0  0  0  0  0  0  0  0999 V2000
   -0.7215   -1.1696    0.7493 C   0  0  0  0  0  0  0  0  0  0  0  0
   -0.4594    0.2755    0.2912 C   0  0  0  0  0  0  0  0  0  0  0  0
   -1.7060    0.8107   -0.4312 C   0  0  0  0  0  0  0  0  0  0  0  0
   -0.1823    1.3006    1.7353 Cl  0  0  0  0  0  0  0  0  0  0  0  0
    0.7577    0.3625   -0.6665 C   0  0  0  0  0  0  0  0  0  0  0  0
    2.0708   -0.1607   -0.0749 C   0  0  0  0  0  0  0  0  0  0  0  0
   -0.8192   -1.8461   -0.1270 H   0  0  0  0  0  0  0  0  0  0  0  0
   -1.6588   -1.2247    1.3437 H   0  0  0  0  0  0  0  0  0  0  0  0
    0.1028   -1.5360    1.3961 H   0  0  0  0  0  0  0  0  0  0  0  0
   -1.9351    0.1941   -1.3272 H   0  0  0  0  0  0  0  0  0  0  0  0
   -1.5455    1.8609   -0.7574 H   0  0  0  0  0  0  0  0  0  0  0  0
   -2.5882    0.7903    0.2444 H   0  0  0  0  0  0  0  0  0  0  0  0
    0.9124    1.4237   -0.9617 H   0  0  0  0  0  0  0  0  0  0  0  0
    0.5438   -0.2102   -1.5959 H   0  0  0  0  0  0  0  0  0  0  0  0
    2.8983    0.0400   -0.7876 H   0  0  0  0  0  0  0  0  0  0  0  0
    2.3087    0.3465    0.8829 H   0  0  0  0  0  0  0  0  0  0  0  0
    2.0213   -1.2573    0.0865 H   0  0  0  0  0  0  0  0  0  0  0  0
  1  2  1  0
  2  3  1  0
  2  5  1  0
  2  4  1  0
  5  6  1  0
  1  7  1  0
  1  8  1  0
  1  9  1  0
  3 10  1  0
  3 11  1  0
  3 12  1  0
  5 13  1  0
  5 14  1  0
  6 15  1  0
  6 16  1  0
  6 17  1  0
M  END
$$$$
