CCC(O)(CC)CC
     RDKit          3D

 24 23  0  0  0  0  0  0  0  0999 V2000
    1.5739   -1.2287   -0.3519 C   0  0  0  0  0  0  0  0  0  0  0  0
    0.6672   -1.0215    0.8710 C   0  0  0  0  0  0  0  0  0  0  0  0
   -0.4496    0.0786    0.7451 C   0  0  0  0  0  0  0  0  0  0  0  0
   -1.4846   -0.2163    1.6603 O   0  0  0  0  0  0  0  0  0  0  0  0
   -1.0663    0.1852   -0.6865 C   0  0  0  0  0  0  0  0  0  0  0  0
   -1.8776   -1.0415   -1.1187 C   0  0  0  0  0  0  0  0  0  0  0  0
    0.0857    1.4718    1.1942 C   0  0  0  0  0  0  0  0  0  0  0  0
    1.2852    2.0298    0.4256 C   0  0  0  0  0  0  0  0  0  0  0  0
    2.4044   -1.9127   -0.0771 H   0  0  0  0  0  0  0  0  0  0  0  0
    1.0137   -1.7028   -1.1831 H   0  0  0  0  0  0  0  0  0  0  0  0
    2.0172   -0.2856   -0.7180 H   0  0  0  0  0  0  0  0  0  0  0  0
    0.2040   -2.0093    1.0831 H   0  0  0  0  0  0  0  0  0  0  0  0
    1.3081   -0.7975    1.7514 H   0  0  0  0  0  0  0  0  0  0  0  0
   -1.7846   -1.1526    1.5297 H   0  0  0  0  0  0  0  0  0  0  0  0
   -0.2764    0.3653   -1.4440 H   0  0  0  0  0  0  0  0  0  0  0  0
   -1.7475    1.0631   -0.7294 H   0  0  0  0  0  0  0  0  0  0  0  0
   -1.3095   -1.9806   -0.9622 H   0  0  0  0  0  0  0  0  0  0  0  0
   -2.1258   -0.9574   -2.1977 H   0  0  0  0  0  0  0  0  0  0  0  0
   -2.8320   -1.0944   -0.5540 H   0  0  0  0  0  0  0  0  0  0  0  0
    0.3663    1.4230    2.2698 H   0  0  0  0  0  0  0  0  0  0  0  0
   -0.7403    2.2140    1.1249 H   0  0  0  0  0  0  0  0  0  0  0  0
    1.1115    2.0179   -0.6689 H   0  0  0  0  0  0  0  0  0  0  0  0
    1.4509    3.0847    0.7303 H   0  0  0  0  0  0  0  0  0  0  0  0
    2.2063    1.4674    0.6811 H   0  0  0  0  0  0  0  0  0  0  0  0
  1  2  1  0
  2  3  1  0
  3  7  1  0
  3  5  1  0
  3  4  1  0
  5  6  1  0
  7  8  1  0
  1  9  1  0
  1 10  1  0
  1 11  1  0
  2 12  1  0
  2 13  1  0
  4 14  1  0
  5 15  1  0
  5 16  1  0
  6 17  1  0
  6 18  1  0
  6 19  1  0
  7 20  1  0
  7 21  1  0
  8 22  1  0
  8 23  1  0
  8 24  1  0
M  END
$$$$
