CNC(N)=O
     RDKit          3D

 11 10  0  0  0  0  0  0  0  0999 V2000
   -1.3826   -0.3688   -0.1750 C   0  0  0  0  0  0  0  0  0  0  0  0
   -0.4502    0.7229   -0.4267 N   0  0  0  0  0  0  0  0  0  0  0  0
    0.9362    0.6655   -0.0639 C   0  0  0  0  0  0  0  0  0  0  0  0
    1.4926   -0.4858    0.5766 N   0  0  0  0  0  0  0  0  0  0  0  0
    1.6803    1.6504   -0.3146 O   0  0  0  0  0  0  0  0  0  0  0  0
   -2.3935   -0.0926   -0.5423 H   0  0  0  0  0  0  0  0  0  0  0  0
   -1.4437   -0.5699    0.9153 H   0  0  0  0  0  0  0  0  0  0  0  0
   -1.0479   -1.2826   -0.7096 H   0  0  0  0  0  0  0  0  0  0  0  0
   -0.8100    1.5863   -0.8930 H   0  0  0  0  0  0  0  0  0  0  0  0
    0.9135   -1.3234    0.8029 H   0  0  0  0  0  0  0  0  0  0  0  0
    2.5053   -0.5021    0.8304 H   0  0  0  0  0  0  0  0  0  0  0  0
  1  2  1  0
  2  3  1  0
  3  4  1  0
  3  5  2  0
  1  6  1  0
  1  7  1  0
  1  8  1  0
  2  9  1  0
  4 10  1  0
  4 11  1  0
M  END
$$$$
