CC1=CCC(C(C)=C)CC1
     RDKit          3D

 26 26  0  0  1  0  0  0  0  0999 V2000
    3.5796   -0.1457   -0.1532 C   0  0  0  0  0  0  0  0  0  0  0  0
    2.1110    0.0023    0.1321 C   0  0  0  0  0  0  0  0  0  0  0  0
    1.5027   -0.7406    1.0729 C   0  0  0  0  0  0  0  0  0  0  0  0
    0.0205   -0.5949    1.2811 C   0  0  0  0  0  0  0  0  0  0  0  0
   -0.7155   -0.5956   -0.0808 C   0  0  1  0  0  0  0  0  0  0  0  0
   -2.1727   -0.1959    0.1027 C   0  0  0  0  0  0  0  0  0  0  0  0
   -2.5394    1.1963    0.5519 C   0  0  0  0  0  0  0  0  0  0  0  0
   -3.1552   -1.0795   -0.1330 C   0  0  0  0  0  0  0  0  0  0  0  0
   -0.0128    0.2801   -1.1695 C   0  0  0  0  0  0  0  0  0  0  0  0
    1.2763    0.9643   -0.6779 C   0  0  0  0  0  0  0  0  0  0  0  0
    3.7209   -0.4740   -1.2041 H   0  0  0  0  0  0  0  0  0  0  0  0
    4.0835    0.8327   -0.0090 H   0  0  0  0  0  0  0  0  0  0  0  0
    4.0578   -0.8915    0.5175 H   0  0  0  0  0  0  0  0  0  0  0  0
    2.0553   -1.4763    1.6504 H   0  0  0  0  0  0  0  0  0  0  0  0
   -0.1594    0.3571    1.8249 H   0  0  0  0  0  0  0  0  0  0  0  0
   -0.3514   -1.4280    1.9160 H   0  0  0  0  0  0  0  0  0  0  0  0
   -0.6712   -1.6477   -0.4466 H   0  0  0  0  0  0  0  0  0  0  0  0
   -3.2004    1.6734   -0.2024 H   0  0  0  0  0  0  0  0  0  0  0  0
   -1.6382    1.8325    0.6729 H   0  0  0  0  0  0  0  0  0  0  0  0
   -3.0710    1.1491    1.5257 H   0  0  0  0  0  0  0  0  0  0  0  0
   -2.9374   -2.0926   -0.4568 H   0  0  0  0  0  0  0  0  0  0  0  0
   -4.1965   -0.7993   -0.0031 H   0  0  0  0  0  0  0  0  0  0  0  0
    0.2504   -0.3698   -2.0334 H   0  0  0  0  0  0  0  0  0  0  0  0
   -0.6945    1.0618   -1.5703 H   0  0  0  0  0  0  0  0  0  0  0  0
    1.8510    1.3504   -1.5475 H   0  0  0  0  0  0  0  0  0  0  0  0
    1.0067    1.8311   -0.0362 H   0  0  0  0  0  0  0  0  0  0  0  0
  1  2  1  0
  2 10  1  0
  2  3  2  0
  3  4  1  0
  4  5  1  0
  5  9  1  0
  5  6  1  0
  6  7  1  0
  6  8  2  3
  9 10  1  0
  1 11  1  0
  1 12  1  0
  1 13  1  0
  3 14  1  0
  4 15  1  0
  4 16  1  0
  5 17  1  6
  7 18  1  0
  7 19  1  0
  7 20  1  0
  8 21  1  0
  8 22  1  0
  9 23  1  0
  9 24  1  0
 10 25  1  0
 10 26  1  0
M  END
$$$$
