OCCc1ccccc1
     RDKit          3D

 19 19  0  0  0  0  0  0  0  0999 V2000
   -2.2910    0.3696    1.2146 O   0  0  0  0  0  0  0  0  0  0  0  0
   -2.3769    0.1518   -0.1668 C   0  0  0  0  0  0  0  0  0  0  0  0
   -1.3339   -0.8797   -0.6001 C   0  0  0  0  0  0  0  0  0  0  0  0
    0.0703   -0.3963   -0.3366 C   0  0  0  0  0  0  0  0  0  0  0  0
    0.6114    0.6561   -1.0953 C   0  0  0  0  0  0  0  0  0  0  0  0
    1.9149    1.1015   -0.8546 C   0  0  0  0  0  0  0  0  0  0  0  0
    2.6885    0.4987    0.1409 C   0  0  0  0  0  0  0  0  0  0  0  0
    2.1605   -0.5518    0.8962 C   0  0  0  0  0  0  0  0  0  0  0  0
    0.8574   -1.0007    0.6589 C   0  0  0  0  0  0  0  0  0  0  0  0
   -2.9845    1.0460    1.4299 H   0  0  0  0  0  0  0  0  0  0  0  0
   -2.2199    1.1079   -0.7144 H   0  0  0  0  0  0  0  0  0  0  0  0
   -3.3891   -0.2348   -0.4199 H   0  0  0  0  0  0  0  0  0  0  0  0
   -1.4501   -1.0882   -1.6857 H   0  0  0  0  0  0  0  0  0  0  0  0
   -1.5298   -1.8323   -0.0605 H   0  0  0  0  0  0  0  0  0  0  0  0
    0.0253    1.1281   -1.8740 H   0  0  0  0  0  0  0  0  0  0  0  0
    2.3258    1.9130   -1.4411 H   0  0  0  0  0  0  0  0  0  0  0  0
    3.6973    0.8445    0.3258 H   0  0  0  0  0  0  0  0  0  0  0  0
    2.7612   -1.0187    1.6660 H   0  0  0  0  0  0  0  0  0  0  0  0
    0.4626   -1.8146    1.2542 H   0  0  0  0  0  0  0  0  0  0  0  0
  1  2  1  0
  2  3  1  0
  3  4  1  0
  4  9  2  0
  4  5  1  0
  5  6  2  0
  6  7  1  0
  7  8  2  0
  8  9  1  0
  1 10  1  0
  2 11  1  0
  2 12  1  0
  3 13  1  0
  3 14  1  0
  5 15  1  0
  6 16  1  0
  7 17  1  0
  8 18  1  0
  9 19  1  0
M  END
$$$$
