CC(N)=O
     RDKit          3D

  9  8  0  0  0  0  0  0  0  0999 V2000
   -1.0989    0.2775    0.1379 C   0  0  0  0  0  0  0  0  0  0  0  0
    0.1869   -0.4702    0.2755 C   0  0  0  0  0  0  0  0  0  0  0  0
    1.3571   -0.0149   -0.4019 N   0  0  0  0  0  0  0  0  0  0  0  0
    0.2402   -1.5057    0.9910 O   0  0  0  0  0  0  0  0  0  0  0  0
   -1.9019   -0.2128    0.7284 H   0  0  0  0  0  0  0  0  0  0  0  0
   -0.9653    1.3165    0.5047 H   0  0  0  0  0  0  0  0  0  0  0  0
   -1.4013    0.3028   -0.9298 H   0  0  0  0  0  0  0  0  0  0  0  0
    2.2574   -0.5353   -0.3078 H   0  0  0  0  0  0  0  0  0  0  0  0
    1.3259    0.8420   -0.9979 H   0  0  0  0  0  0  0  0  0  0  0  0
  1  2  1  0
  2  3  1  0
  2  4  2  0
  1  5  1  0
  1  6  1  0
  1  7  1  0
  3  8  1  0
  3  9  1  0
M  END
$$$$
