OC(c2c(Cl)cccc2)(c3cncnc3)c1ccc(Cl)cc1
     RDKit          3D

 34 36  0  0  1  0  0  0  0  0999 V2000
    0.4700    0.6582    2.0875 O   0  0  0  0  0  0  0  0  0  0  0  0
    0.1012    0.4052    0.7482 C   0  0  1  0  0  0  0  0  0  0  0  0
   -0.8885   -0.7796    0.7481 C   0  0  0  0  0  0  0  0  0  0  0  0
   -0.6601   -1.9380    1.5449 C   0  0  0  0  0  0  0  0  0  0  0  0
    0.7625   -2.1362    2.5674 Cl  0  0  0  0  0  0  0  0  0  0  0  0
   -1.5614   -3.0095    1.5086 C   0  0  0  0  0  0  0  0  0  0  0  0
   -2.6733   -2.9742    0.6704 C   0  0  0  0  0  0  0  0  0  0  0  0
   -2.8847   -1.8755   -0.1568 C   0  0  0  0  0  0  0  0  0  0  0  0
   -1.9985   -0.7977   -0.1327 C   0  0  0  0  0  0  0  0  0  0  0  0
   -0.5487    1.7029    0.2213 C   0  0  0  0  0  0  0  0  0  0  0  0
   -1.7183    2.1872    0.8358 C   0  0  0  0  0  0  0  0  0  0  0  0
   -2.2855    3.3495    0.4239 N   0  0  0  0  0  0  0  0  0  0  0  0
   -1.7282    4.0835   -0.5704 C   0  0  0  0  0  0  0  0  0  0  0  0
   -0.5772    3.6697   -1.1559 N   0  0  0  0  0  0  0  0  0  0  0  0
    0.0261    2.5131   -0.7792 C   0  0  0  0  0  0  0  0  0  0  0  0
    1.3219   -0.0270   -0.0826 C   0  0  0  0  0  0  0  0  0  0  0  0
    2.6248   -0.0595    0.4624 C   0  0  0  0  0  0  0  0  0  0  0  0
    3.7123   -0.4725   -0.3128 C   0  0  0  0  0  0  0  0  0  0  0  0
    3.5229   -0.8624   -1.6401 C   0  0  0  0  0  0  0  0  0  0  0  0
    4.8913   -1.3796   -2.6079 Cl  0  0  0  0  0  0  0  0  0  0  0  0
    2.2422   -0.8415   -2.1947 C   0  0  0  0  0  0  0  0  0  0  0  0
    1.1510   -0.4310   -1.4251 C   0  0  0  0  0  0  0  0  0  0  0  0
    1.0062    1.4952    2.1163 H   0  0  0  0  0  0  0  0  0  0  0  0
   -1.3906   -3.8844    2.1233 H   0  0  0  0  0  0  0  0  0  0  0  0
   -3.3605   -3.8101    0.6465 H   0  0  0  0  0  0  0  0  0  0  0  0
   -3.7335   -1.8621   -0.8285 H   0  0  0  0  0  0  0  0  0  0  0  0
   -2.1836    0.0155   -0.8212 H   0  0  0  0  0  0  0  0  0  0  0  0
   -2.1826    1.6333    1.6416 H   0  0  0  0  0  0  0  0  0  0  0  0
   -2.1937    5.0068   -0.8866 H   0  0  0  0  0  0  0  0  0  0  0  0
    0.9577    2.2484   -1.2564 H   0  0  0  0  0  0  0  0  0  0  0  0
    2.8148    0.2219    1.4887 H   0  0  0  0  0  0  0  0  0  0  0  0
    4.7035   -0.4916    0.1222 H   0  0  0  0  0  0  0  0  0  0  0  0
    2.0898   -1.1423   -3.2235 H   0  0  0  0  0  0  0  0  0  0  0  0
    0.1706   -0.4158   -1.8825 H   0  0  0  0  0  0  0  0  0  0  0  0
  2  1  1  1
  2 16  1  0
  2 10  1  0
  2  3  1  0
  3  9  1  0
  3  4  2  0
  4  6  1  0
  4  5  1  0
  6  7  2  0
  7  8  1  0
  8  9  2  0
 10 15  1  0
 10 11  2  0
 11 12  1  0
 12 13  2  0
 13 14  1  0
 14 15  2  0
 16 22  1  0
 16 17  2  0
 17 18  1  0
 18 19  2  0
 19 21  1  0
 19 20  1  0
 21 22  2  0
  1 23  1  0
  6 24  1  0
  7 25  1  0
  8 26  1  0
  9 27  1  0
 11 28  1  0
 13 29  1  0
 15 30  1  0
 17 31  1  0
 18 32  1  0
 21 33  1  0
 22 34  1  0
M  END
$$$$
