CC(O)CCC
     RDKit          3D

 18 17  0  0  1  0  0  0  0  0999 V2000
   -2.0304    0.7471    0.3049 C   0  0  0  0  0  0  0  0  0  0  0  0
   -1.2284   -0.5117    0.6453 C   0  0  1  0  0  0  0  0  0  0  0  0
   -1.9949   -1.6345    0.2946 O   0  0  0  0  0  0  0  0  0  0  0  0
    0.1194   -0.5579   -0.1035 C   0  0  0  0  0  0  0  0  0  0  0  0
    1.1111    0.5057    0.3917 C   0  0  0  0  0  0  0  0  0  0  0  0
    2.4748    0.3376   -0.2725 C   0  0  0  0  0  0  0  0  0  0  0  0
   -3.0324    0.6915    0.7811 H   0  0  0  0  0  0  0  0  0  0  0  0
   -2.1659    0.8398   -0.7939 H   0  0  0  0  0  0  0  0  0  0  0  0
   -1.5230    1.6551    0.6911 H   0  0  0  0  0  0  0  0  0  0  0  0
   -1.0444   -0.5171    1.7456 H   0  0  0  0  0  0  0  0  0  0  0  0
   -1.6269   -2.4049    0.8018 H   0  0  0  0  0  0  0  0  0  0  0  0
   -0.0517   -0.4335   -1.1957 H   0  0  0  0  0  0  0  0  0  0  0  0
    0.5721   -1.5620    0.0532 H   0  0  0  0  0  0  0  0  0  0  0  0
    1.2364    0.4213    1.4931 H   0  0  0  0  0  0  0  0  0  0  0  0
    0.7311    1.5218    0.1552 H   0  0  0  0  0  0  0  0  0  0  0  0
    2.9055   -0.6561   -0.0253 H   0  0  0  0  0  0  0  0  0  0  0  0
    3.1668    1.1247    0.0944 H   0  0  0  0  0  0  0  0  0  0  0  0
    2.3808    0.4330   -1.3754 H   0  0  0  0  0  0  0  0  0  0  0  0
  1  2  1  0
  2  4  1  0
  2  3  1  0
  4  5  1  0
  5  6  1  0
  1  7  1  0
  1  8  1  0
  1  9  1  0
  2 10  1  1
  3 11  1  0
  4 12  1  0
  4 13  1  0
  5 14  1  0
  5 15  1  0
  6 16  1  0
  6 17  1  0
  6 18  1  0
M  END
$$$$
