Cc1cc(cc(cccc3)c3c2)c2cc1
     RDKit          3D

 27 29  0  0  0  0  0  0  0  0999 V2000
   -4.4252    0.9928   -0.0010 C   0  0  0  0  0  0  0  0  0  0  0  0
   -3.0741    0.3441    0.0697 C   0  0  0  0  0  0  0  0  0  0  0  0
   -1.9052    1.0941   -0.1364 C   0  0  0  0  0  0  0  0  0  0  0  0
   -0.6454    0.4778   -0.0681 C   0  0  0  0  0  0  0  0  0  0  0  0
    0.5244    1.2246   -0.2736 C   0  0  0  0  0  0  0  0  0  0  0  0
    1.7811    0.6054   -0.2045 C   0  0  0  0  0  0  0  0  0  0  0  0
    2.9548    1.3482   -0.4094 C   0  0  0  0  0  0  0  0  0  0  0  0
    4.2029    0.7231   -0.3387 C   0  0  0  0  0  0  0  0  0  0  0  0
    4.2901   -0.6440   -0.0639 C   0  0  0  0  0  0  0  0  0  0  0  0
    3.1298   -1.3954    0.1421 C   0  0  0  0  0  0  0  0  0  0  0  0
    1.8695   -0.7804    0.0740 C   0  0  0  0  0  0  0  0  0  0  0  0
    0.6999   -1.5268    0.2795 C   0  0  0  0  0  0  0  0  0  0  0  0
   -0.5566   -0.9071    0.2103 C   0  0  0  0  0  0  0  0  0  0  0  0
   -1.7289   -1.6496    0.4151 C   0  0  0  0  0  0  0  0  0  0  0  0
   -2.9777   -1.0272    0.3450 C   0  0  0  0  0  0  0  0  0  0  0  0
   -5.0285    0.5115   -0.7993 H   0  0  0  0  0  0  0  0  0  0  0  0
   -4.3465    2.0778   -0.2259 H   0  0  0  0  0  0  0  0  0  0  0  0
   -4.9480    0.8725    0.9711 H   0  0  0  0  0  0  0  0  0  0  0  0
   -1.9770    2.1547   -0.3494 H   0  0  0  0  0  0  0  0  0  0  0  0
    0.4572    2.2861   -0.4870 H   0  0  0  0  0  0  0  0  0  0  0  0
    2.9071    2.4093   -0.6236 H   0  0  0  0  0  0  0  0  0  0  0  0
    5.1050    1.2998   -0.4974 H   0  0  0  0  0  0  0  0  0  0  0  0
    5.2595   -1.1225   -0.0105 H   0  0  0  0  0  0  0  0  0  0  0  0
    3.2173   -2.4544    0.3541 H   0  0  0  0  0  0  0  0  0  0  0  0
    0.7676   -2.5883    0.4929 H   0  0  0  0  0  0  0  0  0  0  0  0
   -1.6800   -2.7107    0.6292 H   0  0  0  0  0  0  0  0  0  0  0  0
   -3.8731   -1.6153    0.5057 H   0  0  0  0  0  0  0  0  0  0  0  0
  1  2  1  0
  2 15  2  0
  2  3  1  0
  3  4  2  0
  4  5  1  0
  4 13  1  0
  5  6  2  0
  6  7  1  0
  6 11  1  0
  7  8  2  0
  8  9  1  0
  9 10  2  0
 10 11  1  0
 11 12  2  0
 12 13  1  0
 13 14  2  0
 14 15  1  0
  1 16  1  0
  1 17  1  0
  1 18  1  0
  3 19  1  0
  5 20  1  0
  7 21  1  0
  8 22  1  0
  9 23  1  0
 10 24  1  0
 12 25  1  0
 14 26  1  0
 15 27  1  0
M  END
$$$$
