OC(c2ccccc2)Cc1ccccc1
     RDKit          3D

 29 30  0  0  1  0  0  0  0  0999 V2000
    1.4444   -1.1565   -2.6835 O   0  0  0  0  0  0  0  0  0  0  0  0
    0.6326   -1.0031   -1.5486 C   0  0  1  0  0  0  0  0  0  0  0  0
    1.4361   -0.3888   -0.4194 C   0  0  0  0  0  0  0  0  0  0  0  0
    2.1263    0.8227   -0.6073 C   0  0  0  0  0  0  0  0  0  0  0  0
    2.8485    1.3942    0.4445 C   0  0  0  0  0  0  0  0  0  0  0  0
    2.8897    0.7630    1.6902 C   0  0  0  0  0  0  0  0  0  0  0  0
    2.2098   -0.4418    1.8860 C   0  0  0  0  0  0  0  0  0  0  0  0
    1.4866   -1.0176    0.8371 C   0  0  0  0  0  0  0  0  0  0  0  0
   -0.5798   -0.1277   -1.9121 C   0  0  0  0  0  0  0  0  0  0  0  0
   -1.5112    0.0601   -0.7390 C   0  0  0  0  0  0  0  0  0  0  0  0
   -1.6146    1.3105   -0.1055 C   0  0  0  0  0  0  0  0  0  0  0  0
   -2.4643    1.4758    0.9925 C   0  0  0  0  0  0  0  0  0  0  0  0
   -3.2184    0.3977    1.4636 C   0  0  0  0  0  0  0  0  0  0  0  0
   -3.1249   -0.8477    0.8367 C   0  0  0  0  0  0  0  0  0  0  0  0
   -2.2759   -1.0178   -0.2611 C   0  0  0  0  0  0  0  0  0  0  0  0
    2.0723   -1.9009   -2.4880 H   0  0  0  0  0  0  0  0  0  0  0  0
    0.2489   -2.0060   -1.2468 H   0  0  0  0  0  0  0  0  0  0  0  0
    2.1039    1.3241   -1.5667 H   0  0  0  0  0  0  0  0  0  0  0  0
    3.3759    2.3272    0.2939 H   0  0  0  0  0  0  0  0  0  0  0  0
    3.4484    1.2074    2.5037 H   0  0  0  0  0  0  0  0  0  0  0  0
    2.2414   -0.9290    2.8520 H   0  0  0  0  0  0  0  0  0  0  0  0
    0.9592   -1.9476    1.0087 H   0  0  0  0  0  0  0  0  0  0  0  0
   -1.1424   -0.6054   -2.7435 H   0  0  0  0  0  0  0  0  0  0  0  0
   -0.2267    0.8564   -2.2915 H   0  0  0  0  0  0  0  0  0  0  0  0
   -1.0304    2.1534   -0.4534 H   0  0  0  0  0  0  0  0  0  0  0  0
   -2.5365    2.4396    1.4797 H   0  0  0  0  0  0  0  0  0  0  0  0
   -3.8752    0.5275    2.3140 H   0  0  0  0  0  0  0  0  0  0  0  0
   -3.7102   -1.6817    1.2018 H   0  0  0  0  0  0  0  0  0  0  0  0
   -2.2136   -1.9880   -0.7380 H   0  0  0  0  0  0  0  0  0  0  0  0
  1  2  1  0
  2  9  1  0
  2  3  1  0
  3  8  1  0
  3  4  2  0
  4  5  1  0
  5  6  2  0
  6  7  1  0
  7  8  2  0
  9 10  1  0
 10 15  1  0
 10 11  2  0
 11 12  1  0
 12 13  2  0
 13 14  1  0
 14 15  2  0
  1 16  1  0
  2 17  1  1
  4 18  1  0
  5 19  1  0
  6 20  1  0
  7 21  1  0
  8 22  1  0
  9 23  1  0
  9 24  1  0
 11 25  1  0
 12 26  1  0
 13 27  1  0
 14 28  1  0
 15 29  1  0
M  END
$$$$
