O=C(c1ccccc1)NC(c2ccccc2)=O
     RDKit          3D

 28 29  0  0  0  0  0  0  0  0999 V2000
   -0.9718   -2.6557   -0.2467 O   0  0  0  0  0  0  0  0  0  0  0  0
   -1.0893   -1.4210   -0.0159 C   0  0  0  0  0  0  0  0  0  0  0  0
   -2.4448   -0.8199    0.0180 C   0  0  0  0  0  0  0  0  0  0  0  0
   -3.5660   -1.6254    0.2932 C   0  0  0  0  0  0  0  0  0  0  0  0
   -4.8487   -1.0695    0.3216 C   0  0  0  0  0  0  0  0  0  0  0  0
   -5.0282    0.2919    0.0682 C   0  0  0  0  0  0  0  0  0  0  0  0
   -3.9256    1.0994   -0.2189 C   0  0  0  0  0  0  0  0  0  0  0  0
   -2.6401    0.5492   -0.2477 C   0  0  0  0  0  0  0  0  0  0  0  0
    0.0810   -0.6188    0.2288 N   0  0  0  0  0  0  0  0  0  0  0  0
    1.4277   -1.0835    0.0198 C   0  0  0  0  0  0  0  0  0  0  0  0
    2.5754   -0.1467    0.0892 C   0  0  0  0  0  0  0  0  0  0  0  0
    2.4105    1.2265   -0.1761 C   0  0  0  0  0  0  0  0  0  0  0  0
    3.5043    2.0957   -0.1136 C   0  0  0  0  0  0  0  0  0  0  0  0
    4.7723    1.6062    0.2071 C   0  0  0  0  0  0  0  0  0  0  0  0
    4.9508    0.2447    0.4605 C   0  0  0  0  0  0  0  0  0  0  0  0
    3.8611   -0.6293    0.3985 C   0  0  0  0  0  0  0  0  0  0  0  0
    1.6460   -2.3046   -0.2096 O   0  0  0  0  0  0  0  0  0  0  0  0
   -3.4497   -2.6826    0.4971 H   0  0  0  0  0  0  0  0  0  0  0  0
   -5.7043   -1.6953    0.5403 H   0  0  0  0  0  0  0  0  0  0  0  0
   -6.0220    0.7201    0.0891 H   0  0  0  0  0  0  0  0  0  0  0  0
   -4.0673    2.1522   -0.4262 H   0  0  0  0  0  0  0  0  0  0  0  0
   -1.8087    1.1931   -0.5020 H   0  0  0  0  0  0  0  0  0  0  0  0
   -0.0519    0.3278    0.6469 H   0  0  0  0  0  0  0  0  0  0  0  0
    1.4463    1.6296   -0.4559 H   0  0  0  0  0  0  0  0  0  0  0  0
    3.3695    3.1496   -0.3207 H   0  0  0  0  0  0  0  0  0  0  0  0
    5.6172    2.2810    0.2541 H   0  0  0  0  0  0  0  0  0  0  0  0
    5.9346   -0.1345    0.7054 H   0  0  0  0  0  0  0  0  0  0  0  0
    4.0218   -1.6807    0.6031 H   0  0  0  0  0  0  0  0  0  0  0  0
  1  2  2  0
  2  3  1  0
  2  9  1  0
  3  8  1  0
  3  4  2  0
  4  5  1  0
  5  6  2  0
  6  7  1  0
  7  8  2  0
  9 10  1  0
 10 11  1  0
 10 17  2  0
 11 16  1  0
 11 12  2  0
 12 13  1  0
 13 14  2  0
 14 15  1  0
 15 16  2  0
  4 18  1  0
  5 19  1  0
  6 20  1  0
  7 21  1  0
  8 22  1  0
  9 23  1  0
 12 24  1  0
 13 25  1  0
 14 26  1  0
 15 27  1  0
 16 28  1  0
M  END
$$$$
