Cc2nc1ccccc1[nH]2
     RDKit          3D

 18 19  0  0  0  0  0  0  0  0999 V2000
    3.2140    0.1002    0.0146 C   0  0  0  0  0  0  0  0  0  0  0  0
    1.7218    0.1128    0.0002 C   0  0  0  0  0  0  0  0  0  0  0  0
    0.9901    1.2492   -0.1512 N   0  0  0  0  0  0  0  0  0  0  0  0
   -0.2747    0.7933   -0.1037 C   0  0  0  0  0  0  0  0  0  0  0  0
   -1.4517    1.5310   -0.2079 C   0  0  0  0  0  0  0  0  0  0  0  0
   -2.6712    0.8310   -0.1289 C   0  0  0  0  0  0  0  0  0  0  0  0
   -2.6816   -0.5720    0.0502 C   0  0  0  0  0  0  0  0  0  0  0  0
   -1.4726   -1.2863    0.1518 C   0  0  0  0  0  0  0  0  0  0  0  0
   -0.2875   -0.5590    0.0690 C   0  0  0  0  0  0  0  0  0  0  0  0
    0.9713   -1.0080    0.1370 N   0  0  0  0  0  0  0  0  0  0  0  0
    3.5878   -0.5373   -0.8134 H   0  0  0  0  0  0  0  0  0  0  0  0
    3.5725   -0.3080    0.9823 H   0  0  0  0  0  0  0  0  0  0  0  0
    3.6099    1.1297   -0.1136 H   0  0  0  0  0  0  0  0  0  0  0  0
   -1.4309    2.6044   -0.3449 H   0  0  0  0  0  0  0  0  0  0  0  0
   -3.6063    1.3703   -0.2058 H   0  0  0  0  0  0  0  0  0  0  0  0
   -3.6244   -1.1000    0.1097 H   0  0  0  0  0  0  0  0  0  0  0  0
   -1.4655   -2.3598    0.2890 H   0  0  0  0  0  0  0  0  0  0  0  0
    1.2986   -1.9915    0.2655 H   0  0  0  0  0  0  0  0  0  0  0  0
  1  2  1  0
  2 10  1  0
  2  3  2  0
  3  4  1  0
  4  5  1  0
  4  9  2  0
  5  6  2  0
  6  7  1  0
  7  8  2  0
  8  9  1  0
  9 10  1  0
  1 11  1  0
  1 12  1  0
  1 13  1  0
  5 14  1  0
  6 15  1  0
  7 16  1  0
  8 17  1  0
 10 18  1  0
M  END
$$$$
