ClC(CC)CC
     RDKit          3D

 17 16  0  0  0  0  0  0  0  0999 V2000
   -0.2581    1.8400   -0.8096 Cl  0  0  0  0  0  0  0  0  0  0  0  0
   -0.0194    0.3250    0.1185 C   0  0  0  0  0  0  0  0  0  0  0  0
    1.2550   -0.3926   -0.3622 C   0  0  0  0  0  0  0  0  0  0  0  0
    2.5233    0.3921   -0.0267 C   0  0  0  0  0  0  0  0  0  0  0  0
   -1.2456   -0.5916   -0.0439 C   0  0  0  0  0  0  0  0  0  0  0  0
   -2.4966   -0.0074    0.6123 C   0  0  0  0  0  0  0  0  0  0  0  0
    0.0970    0.5836    1.1942 H   0  0  0  0  0  0  0  0  0  0  0  0
    1.3305   -1.3872    0.1295 H   0  0  0  0  0  0  0  0  0  0  0  0
    1.2048   -0.5571   -1.4608 H   0  0  0  0  0  0  0  0  0  0  0  0
    2.5354    1.3671   -0.5572 H   0  0  0  0  0  0  0  0  0  0  0  0
    3.4135   -0.1898   -0.3462 H   0  0  0  0  0  0  0  0  0  0  0  0
    2.5909    0.5682    1.0680 H   0  0  0  0  0  0  0  0  0  0  0  0
   -1.0405   -1.5759    0.4313 H   0  0  0  0  0  0  0  0  0  0  0  0
   -1.4455   -0.7681   -1.1235 H   0  0  0  0  0  0  0  0  0  0  0  0
   -3.3365   -0.7270    0.5130 H   0  0  0  0  0  0  0  0  0  0  0  0
   -2.3161    0.1777    1.6926 H   0  0  0  0  0  0  0  0  0  0  0  0
   -2.7920    0.9430    0.1209 H   0  0  0  0  0  0  0  0  0  0  0  0
  1  2  1  0
  2  5  1  0
  2  3  1  0
  3  4  1  0
  5  6  1  0
  2  7  1  0
  3  8  1  0
  3  9  1  0
  4 10  1  0
  4 11  1  0
  4 12  1  0
  5 13  1  0
  5 14  1  0
  6 15  1  0
  6 16  1  0
  6 17  1  0
M  END
$$$$
