CCOc1ccc(NC(C)=O)cc1
     RDKit          3D

 26 26  0  0  0  0  0  0  0  0999 V2000
   -4.1147    1.2592    0.2878 C   0  0  0  0  0  0  0  0  0  0  0  0
   -3.9955   -0.2415    0.0416 C   0  0  0  0  0  0  0  0  0  0  0  0
   -2.8726   -0.7844    0.7370 O   0  0  0  0  0  0  0  0  0  0  0  0
   -1.5254   -0.5980    0.3856 C   0  0  0  0  0  0  0  0  0  0  0  0
   -1.1290    0.0186   -0.8165 C   0  0  0  0  0  0  0  0  0  0  0  0
    0.2280    0.1757   -1.1141 C   0  0  0  0  0  0  0  0  0  0  0  0
    1.2109   -0.2662   -0.2171 C   0  0  0  0  0  0  0  0  0  0  0  0
    2.5990   -0.1114   -0.5597 N   0  0  0  0  0  0  0  0  0  0  0  0
    3.6462    0.1078    0.3981 C   0  0  0  0  0  0  0  0  0  0  0  0
    5.0742    0.0586   -0.0379 C   0  0  0  0  0  0  0  0  0  0  0  0
    3.3744    0.4243    1.5876 O   0  0  0  0  0  0  0  0  0  0  0  0
    0.8137   -0.9067    0.9694 C   0  0  0  0  0  0  0  0  0  0  0  0
   -0.5430   -1.0644    1.2663 C   0  0  0  0  0  0  0  0  0  0  0  0
   -3.2290    1.7963   -0.1085 H   0  0  0  0  0  0  0  0  0  0  0  0
   -4.1991    1.4571    1.3773 H   0  0  0  0  0  0  0  0  0  0  0  0
   -5.0224    1.6487   -0.2191 H   0  0  0  0  0  0  0  0  0  0  0  0
   -3.9342   -0.4650   -1.0444 H   0  0  0  0  0  0  0  0  0  0  0  0
   -4.9136   -0.7306    0.4296 H   0  0  0  0  0  0  0  0  0  0  0  0
   -1.8562    0.3736   -1.5324 H   0  0  0  0  0  0  0  0  0  0  0  0
    0.5153    0.6510   -2.0437 H   0  0  0  0  0  0  0  0  0  0  0  0
    2.8539   -0.0740   -1.5729 H   0  0  0  0  0  0  0  0  0  0  0  0
    5.7384   -0.1217    0.8339 H   0  0  0  0  0  0  0  0  0  0  0  0
    5.2181   -0.7634   -0.7701 H   0  0  0  0  0  0  0  0  0  0  0  0
    5.3491    1.0233   -0.5124 H   0  0  0  0  0  0  0  0  0  0  0  0
    1.5472   -1.3087    1.6552 H   0  0  0  0  0  0  0  0  0  0  0  0
   -0.8337   -1.5581    2.1851 H   0  0  0  0  0  0  0  0  0  0  0  0
  1  2  1  0
  2  3  1  0
  3  4  1  0
  4 13  2  0
  4  5  1  0
  5  6  2  0
  6  7  1  0
  7 12  2  0
  7  8  1  0
  8  9  1  0
  9 10  1  0
  9 11  2  0
 12 13  1  0
  1 14  1  0
  1 15  1  0
  1 16  1  0
  2 17  1  0
  2 18  1  0
  5 19  1  0
  6 20  1  0
  8 21  1  0
 10 22  1  0
 10 23  1  0
 10 24  1  0
 12 25  1  0
 13 26  1  0
M  END
$$$$
