NC(N)=S
     RDKit          3D

  8  7  0  0  0  0  0  0  0  0999 V2000
   -1.2412    0.2246   -0.0365 N   0  0  0  0  0  0  0  0  0  0  0  0
    0.1716    0.4178   -0.1015 C   0  0  0  0  0  0  0  0  0  0  0  0
    1.0562   -0.6749    0.1459 N   0  0  0  0  0  0  0  0  0  0  0  0
    0.7785    1.8951   -0.4603 S   0  0  0  0  0  0  0  0  0  0  0  0
   -1.8975    1.0169   -0.2156 H   0  0  0  0  0  0  0  0  0  0  0  0
   -1.6361   -0.7145    0.1917 H   0  0  0  0  0  0  0  0  0  0  0  0
    0.6770   -1.6201    0.3753 H   0  0  0  0  0  0  0  0  0  0  0  0
    2.0915   -0.5448    0.1010 H   0  0  0  0  0  0  0  0  0  0  0  0
  1  2  1  0
  2  3  1  0
  2  4  2  0
  1  5  1  0
  1  6  1  0
  3  7  1  0
  3  8  1  0
M  END
$$$$
