NC(OCc1ccccc1)=O
     RDKit          3D

 20 20  0  0  0  0  0  0  0  0999 V2000
    3.2836    1.6809    0.3363 N   0  0  0  0  0  0  0  0  0  0  0  0
    2.4111    0.5546    0.3208 C   0  0  0  0  0  0  0  0  0  0  0  0
    1.8825    0.1086   -0.8955 O   0  0  0  0  0  0  0  0  0  0  0  0
    0.9813   -0.9921   -0.9996 C   0  0  0  0  0  0  0  0  0  0  0  0
   -0.3678   -0.6245   -0.4431 C   0  0  0  0  0  0  0  0  0  0  0  0
   -1.1028    0.4235   -1.0210 C   0  0  0  0  0  0  0  0  0  0  0  0
   -2.3560    0.7718   -0.5074 C   0  0  0  0  0  0  0  0  0  0  0  0
   -2.8834    0.0764    0.5841 C   0  0  0  0  0  0  0  0  0  0  0  0
   -2.1587   -0.9689    1.1635 C   0  0  0  0  0  0  0  0  0  0  0  0
   -0.9052   -1.3206    0.6528 C   0  0  0  0  0  0  0  0  0  0  0  0
    2.1260   -0.0297    1.4012 O   0  0  0  0  0  0  0  0  0  0  0  0
    3.6873    2.0263    1.2352 H   0  0  0  0  0  0  0  0  0  0  0  0
    3.5244    2.1701   -0.5539 H   0  0  0  0  0  0  0  0  0  0  0  0
    1.4112   -1.8779   -0.4823 H   0  0  0  0  0  0  0  0  0  0  0  0
    0.8655   -1.2580   -2.0714 H   0  0  0  0  0  0  0  0  0  0  0  0
   -0.7042    0.9696   -1.8671 H   0  0  0  0  0  0  0  0  0  0  0  0
   -2.9181    1.5809   -0.9556 H   0  0  0  0  0  0  0  0  0  0  0  0
   -3.8534    0.3472    0.9808 H   0  0  0  0  0  0  0  0  0  0  0  0
   -2.5683   -1.5067    2.0088 H   0  0  0  0  0  0  0  0  0  0  0  0
   -0.3549   -2.1315    1.1135 H   0  0  0  0  0  0  0  0  0  0  0  0
  1  2  1  0
  2 11  2  0
  2  3  1  0
  3  4  1  0
  4  5  1  0
  5 10  2  0
  5  6  1  0
  6  7  2  0
  7  8  1  0
  8  9  2  0
  9 10  1  0
  1 12  1  0
  1 13  1  0
  4 14  1  0
  4 15  1  0
  6 16  1  0
  7 17  1  0
  8 18  1  0
  9 19  1  0
 10 20  1  0
M  END
$$$$
