CC(Nc(cc1)ccc1I)=O
     RDKit          3D

 19 19  0  0  0  0  0  0  0  0999 V2000
   -2.4578    0.8140   -0.6550 C   0  0  0  0  0  0  0  0  0  0  0  0
   -2.4434   -0.1269    0.5127 C   0  0  0  0  0  0  0  0  0  0  0  0
   -1.2455   -0.8023    0.9276 N   0  0  0  0  0  0  0  0  0  0  0  0
    0.0684   -0.4658    0.4610 C   0  0  0  0  0  0  0  0  0  0  0  0
    0.9100   -1.4759   -0.0268 C   0  0  0  0  0  0  0  0  0  0  0  0
    2.2034   -1.1681   -0.4603 C   0  0  0  0  0  0  0  0  0  0  0  0
    0.5529    0.8491    0.5546 C   0  0  0  0  0  0  0  0  0  0  0  0
    1.8468    1.1550    0.1215 C   0  0  0  0  0  0  0  0  0  0  0  0
    2.6710    0.1482   -0.3913 C   0  0  0  0  0  0  0  0  0  0  0  0
    4.6231    0.6108   -1.0417 I   0  0  0  0  0  0  0  0  0  0  0  0
   -3.5260   -0.3803    1.1053 O   0  0  0  0  0  0  0  0  0  0  0  0
   -1.9098    1.7452   -0.4117 H   0  0  0  0  0  0  0  0  0  0  0  0
   -3.5018    1.0888   -0.9166 H   0  0  0  0  0  0  0  0  0  0  0  0
   -1.9907    0.3253   -1.5355 H   0  0  0  0  0  0  0  0  0  0  0  0
   -1.3523   -1.6681    1.5033 H   0  0  0  0  0  0  0  0  0  0  0  0
    0.5578   -2.4983   -0.0810 H   0  0  0  0  0  0  0  0  0  0  0  0
    2.8416   -1.9522   -0.8465 H   0  0  0  0  0  0  0  0  0  0  0  0
   -0.0588    1.6300    0.9864 H   0  0  0  0  0  0  0  0  0  0  0  0
    2.2114    2.1715    0.1941 H   0  0  0  0  0  0  0  0  0  0  0  0
  1  2  1  0
  2  3  1  0
  2 11  2  0
  3  4  1  0
  4  5  2  0
  4  7  1  0
  5  6  1  0
  6  9  2  0
  7  8  2  0
  8  9  1  0
  9 10  1  0
  1 12  1  0
  1 13  1  0
  1 14  1  0
  3 15  1  0
  5 16  1  0
  6 17  1  0
  7 18  1  0
  8 19  1  0
M  END
$$$$
