CCc1ccc(C)cc1
     RDKit          3D

 21 21  0  0  0  0  0  0  0  0999 V2000
   -3.1445    0.3658   -0.0056 C   0  0  0  0  0  0  0  0  0  0  0  0
   -2.2426   -0.8616    0.0916 C   0  0  0  0  0  0  0  0  0  0  0  0
   -0.7872   -0.4735    0.0408 C   0  0  0  0  0  0  0  0  0  0  0  0
   -0.1972    0.2020    1.1216 C   0  0  0  0  0  0  0  0  0  0  0  0
    1.1540    0.5581    1.0801 C   0  0  0  0  0  0  0  0  0  0  0  0
    1.9320    0.2525   -0.0465 C   0  0  0  0  0  0  0  0  0  0  0  0
    3.3910    0.5996   -0.0742 C   0  0  0  0  0  0  0  0  0  0  0  0
    1.3503   -0.4427   -1.1172 C   0  0  0  0  0  0  0  0  0  0  0  0
   -0.0009   -0.7994   -1.0763 C   0  0  0  0  0  0  0  0  0  0  0  0
   -2.9454    0.9144   -0.9511 H   0  0  0  0  0  0  0  0  0  0  0  0
   -4.2079    0.0466    0.0029 H   0  0  0  0  0  0  0  0  0  0  0  0
   -2.9740    1.0459    0.8557 H   0  0  0  0  0  0  0  0  0  0  0  0
   -2.4942   -1.5504   -0.7442 H   0  0  0  0  0  0  0  0  0  0  0  0
   -2.4490   -1.4017    1.0408 H   0  0  0  0  0  0  0  0  0  0  0  0
   -0.7825    0.4466    1.9994 H   0  0  0  0  0  0  0  0  0  0  0  0
    1.5932    1.0713    1.9267 H   0  0  0  0  0  0  0  0  0  0  0  0
    3.7312    0.7794   -1.1163 H   0  0  0  0  0  0  0  0  0  0  0  0
    3.5856    1.5215    0.5141 H   0  0  0  0  0  0  0  0  0  0  0  0
    3.9777   -0.2372    0.3590 H   0  0  0  0  0  0  0  0  0  0  0  0
    1.9425   -0.7083   -1.9844 H   0  0  0  0  0  0  0  0  0  0  0  0
   -0.4323   -1.3288   -1.9168 H   0  0  0  0  0  0  0  0  0  0  0  0
  1  2  1  0
  2  3  1  0
  3  9  2  0
  3  4  1  0
  4  5  2  0
  5  6  1  0
  6  7  1  0
  6  8  2  0
  8  9  1  0
  1 10  1  0
  1 11  1  0
  1 12  1  0
  2 13  1  0
  2 14  1  0
  4 15  1  0
  5 16  1  0
  7 17  1  0
  7 18  1  0
  7 19  1  0
  8 20  1  0
  9 21  1  0
M  END
$$$$
