OC(CC)CCC
     RDKit          3D

 21 20  0  0  1  0  0  0  0  0999 V2000
   -1.2114    1.9475    0.8883 O   0  0  0  0  0  0  0  0  0  0  0  0
   -0.6185    0.6755    0.9528 C   0  0  1  0  0  0  0  0  0  0  0  0
   -1.6514   -0.4074    0.5628 C   0  0  0  0  0  0  0  0  0  0  0  0
   -2.1646   -0.2788   -0.8726 C   0  0  0  0  0  0  0  0  0  0  0  0
    0.6520    0.6785    0.0785 C   0  0  0  0  0  0  0  0  0  0  0  0
    1.4432   -0.6358    0.1612 C   0  0  0  0  0  0  0  0  0  0  0  0
    2.7778   -0.5212   -0.5699 C   0  0  0  0  0  0  0  0  0  0  0  0
   -1.8169    2.0248    1.6716 H   0  0  0  0  0  0  0  0  0  0  0  0
   -0.2993    0.4791    2.0036 H   0  0  0  0  0  0  0  0  0  0  0  0
   -2.5204   -0.3288    1.2517 H   0  0  0  0  0  0  0  0  0  0  0  0
   -1.2227   -1.4207    0.7115 H   0  0  0  0  0  0  0  0  0  0  0  0
   -2.9963   -0.9971   -1.0314 H   0  0  0  0  0  0  0  0  0  0  0  0
   -1.3615   -0.5195   -1.5994 H   0  0  0  0  0  0  0  0  0  0  0  0
   -2.5449    0.7468   -1.0637 H   0  0  0  0  0  0  0  0  0  0  0  0
    0.3932    0.8984   -0.9794 H   0  0  0  0  0  0  0  0  0  0  0  0
    1.3044    1.5075    0.4322 H   0  0  0  0  0  0  0  0  0  0  0  0
    1.6376   -0.8940    1.2249 H   0  0  0  0  0  0  0  0  0  0  0  0
    0.8620   -1.4595   -0.3044 H   0  0  0  0  0  0  0  0  0  0  0  0
    2.6109   -0.2766   -1.6407 H   0  0  0  0  0  0  0  0  0  0  0  0
    3.3206   -1.4878   -0.5067 H   0  0  0  0  0  0  0  0  0  0  0  0
    3.4061    0.2689   -0.1064 H   0  0  0  0  0  0  0  0  0  0  0  0
  1  2  1  0
  2  3  1  0
  2  5  1  0
  3  4  1  0
  5  6  1  0
  6  7  1  0
  1  8  1  0
  2  9  1  1
  3 10  1  0
  3 11  1  0
  4 12  1  0
  4 13  1  0
  4 14  1  0
  5 15  1  0
  5 16  1  0
  6 17  1  0
  6 18  1  0
  7 19  1  0
  7 20  1  0
  7 21  1  0
M  END
$$$$
