CCCCC(OC)=O
     RDKit          3D

 20 19  0  0  0  0  0  0  0  0999 V2000
   -2.8424    0.5771    0.5462 C   0  0  0  0  0  0  0  0  0  0  0  0
   -2.1818   -0.7718    0.2629 C   0  0  0  0  0  0  0  0  0  0  0  0
   -0.7257   -0.6327   -0.2069 C   0  0  0  0  0  0  0  0  0  0  0  0
    0.2136   -0.1705    0.9152 C   0  0  0  0  0  0  0  0  0  0  0  0
    1.6354   -0.1744    0.4464 C   0  0  0  0  0  0  0  0  0  0  0  0
    2.0192    0.6733   -0.5970 O   0  0  0  0  0  0  0  0  0  0  0  0
    3.3503    0.7196   -1.0961 C   0  0  0  0  0  0  0  0  0  0  0  0
    2.4764   -0.9351    0.9991 O   0  0  0  0  0  0  0  0  0  0  0  0
   -3.9189    0.4207    0.7690 H   0  0  0  0  0  0  0  0  0  0  0  0
   -2.7582    1.2446   -0.3376 H   0  0  0  0  0  0  0  0  0  0  0  0
   -2.3756    1.0665    1.4258 H   0  0  0  0  0  0  0  0  0  0  0  0
   -2.7613   -1.2818   -0.5369 H   0  0  0  0  0  0  0  0  0  0  0  0
   -2.2318   -1.4096    1.1721 H   0  0  0  0  0  0  0  0  0  0  0  0
   -0.3859   -1.6273   -0.5714 H   0  0  0  0  0  0  0  0  0  0  0  0
   -0.6741    0.0758   -1.0630 H   0  0  0  0  0  0  0  0  0  0  0  0
   -0.0445    0.8613    1.2328 H   0  0  0  0  0  0  0  0  0  0  0  0
    0.1075   -0.8454    1.7929 H   0  0  0  0  0  0  0  0  0  0  0  0
    3.4059    1.4628   -1.9177 H   0  0  0  0  0  0  0  0  0  0  0  0
    3.6429   -0.2763   -1.4911 H   0  0  0  0  0  0  0  0  0  0  0  0
    4.0490    1.0233   -0.2880 H   0  0  0  0  0  0  0  0  0  0  0  0
  1  2  1  0
  2  3  1  0
  3  4  1  0
  4  5  1  0
  5  8  2  0
  5  6  1  0
  6  7  1  0
  1  9  1  0
  1 10  1  0
  1 11  1  0
  2 12  1  0
  2 13  1  0
  3 14  1  0
  3 15  1  0
  4 16  1  0
  4 17  1  0
  7 18  1  0
  7 19  1  0
  7 20  1  0
M  END
$$$$
