CCOC(C)C
     RDKit          3D

 18 17  0  0  0  0  0  0  0  0999 V2000
    2.6255   -0.2273    0.5763 C   0  0  0  0  0  0  0  0  0  0  0  0
    1.4532    0.2047   -0.2906 C   0  0  0  0  0  0  0  0  0  0  0  0
    0.2795   -0.4378    0.1624 O   0  0  0  0  0  0  0  0  0  0  0  0
   -0.8562    0.0327   -0.5437 C   0  0  0  0  0  0  0  0  0  0  0  0
   -1.7924   -1.1482   -0.7976 C   0  0  0  0  0  0  0  0  0  0  0  0
   -1.5707    1.1016    0.2883 C   0  0  0  0  0  0  0  0  0  0  0  0
    2.7585   -1.3283    0.5147 H   0  0  0  0  0  0  0  0  0  0  0  0
    2.4416    0.0593    1.6336 H   0  0  0  0  0  0  0  0  0  0  0  0
    3.5552    0.2682    0.2251 H   0  0  0  0  0  0  0  0  0  0  0  0
    1.6702   -0.0853   -1.3435 H   0  0  0  0  0  0  0  0  0  0  0  0
    1.3572    1.3121   -0.2219 H   0  0  0  0  0  0  0  0  0  0  0  0
   -0.6068    0.4681   -1.5424 H   0  0  0  0  0  0  0  0  0  0  0  0
   -2.6963   -0.8143   -1.3510 H   0  0  0  0  0  0  0  0  0  0  0  0
   -1.2701   -1.9145   -1.4090 H   0  0  0  0  0  0  0  0  0  0  0  0
   -2.1048   -1.6121    0.1627 H   0  0  0  0  0  0  0  0  0  0  0  0
   -1.8591    0.6931    1.2806 H   0  0  0  0  0  0  0  0  0  0  0  0
   -2.4831    1.4547   -0.2382 H   0  0  0  0  0  0  0  0  0  0  0  0
   -0.9014    1.9733    0.4448 H   0  0  0  0  0  0  0  0  0  0  0  0
  1  2  1  0
  2  3  1  0
  3  4  1  0
  4  6  1  0
  4  5  1  0
  1  7  1  0
  1  8  1  0
  1  9  1  0
  2 10  1  0
  2 11  1  0
  4 12  1  0
  5 13  1  0
  5 14  1  0
  5 15  1  0
  6 16  1  0
  6 17  1  0
  6 18  1  0
M  END
$$$$
