CC(C)CCCO
     RDKit          3D

 21 20  0  0  0  0  0  0  0  0999 V2000
   -1.7053    1.0428   -0.8729 C   0  0  0  0  0  0  0  0  0  0  0  0
   -1.3080   -0.2625   -0.1667 C   0  0  0  0  0  0  0  0  0  0  0  0
   -2.3643   -0.6266    0.8849 C   0  0  0  0  0  0  0  0  0  0  0  0
    0.0846   -0.1599    0.4958 C   0  0  0  0  0  0  0  0  0  0  0  0
    1.2245   -0.0501   -0.5293 C   0  0  0  0  0  0  0  0  0  0  0  0
    2.5894   -0.1067    0.1562 C   0  0  0  0  0  0  0  0  0  0  0  0
    3.6000    0.0123   -0.8055 O   0  0  0  0  0  0  0  0  0  0  0  0
   -1.0363    1.2419   -1.7351 H   0  0  0  0  0  0  0  0  0  0  0  0
   -1.6578    1.9010   -0.1688 H   0  0  0  0  0  0  0  0  0  0  0  0
   -2.7399    0.9652   -1.2703 H   0  0  0  0  0  0  0  0  0  0  0  0
   -1.2902   -1.0794   -0.9221 H   0  0  0  0  0  0  0  0  0  0  0  0
   -3.3620   -0.7339    0.4080 H   0  0  0  0  0  0  0  0  0  0  0  0
   -2.4235    0.1590    1.6689 H   0  0  0  0  0  0  0  0  0  0  0  0
   -2.1108   -1.5954    1.3659 H   0  0  0  0  0  0  0  0  0  0  0  0
    0.2556   -1.0726    1.1091 H   0  0  0  0  0  0  0  0  0  0  0  0
    0.1136    0.7166    1.1806 H   0  0  0  0  0  0  0  0  0  0  0  0
    1.1482    0.9116   -1.0795 H   0  0  0  0  0  0  0  0  0  0  0  0
    1.1528   -0.8850   -1.2604 H   0  0  0  0  0  0  0  0  0  0  0  0
    2.6725    0.7266    0.8899 H   0  0  0  0  0  0  0  0  0  0  0  0
    2.6984   -1.0761    0.6927 H   0  0  0  0  0  0  0  0  0  0  0  0
    4.4584   -0.0287   -0.3091 H   0  0  0  0  0  0  0  0  0  0  0  0
  1  2  1  0
  2  3  1  0
  2  4  1  0
  4  5  1  0
  5  6  1  0
  6  7  1  0
  1  8  1  0
  1  9  1  0
  1 10  1  0
  2 11  1  0
  3 12  1  0
  3 13  1  0
  3 14  1  0
  4 15  1  0
  4 16  1  0
  5 17  1  0
  5 18  1  0
  6 19  1  0
  6 20  1  0
  7 21  1  0
M  END
$$$$
