CC(O)CCCC
     RDKit          3D

 21 20  0  0  1  0  0  0  0  0999 V2000
   -3.0596    0.2563   -0.2262 C   0  0  0  0  0  0  0  0  0  0  0  0
   -1.7491   -0.4841    0.0539 C   0  0  1  0  0  0  0  0  0  0  0  0
   -1.6565   -1.6080   -0.7830 O   0  0  0  0  0  0  0  0  0  0  0  0
   -0.5463    0.4413   -0.1907 C   0  0  0  0  0  0  0  0  0  0  0  0
    0.7768   -0.2363    0.1926 C   0  0  0  0  0  0  0  0  0  0  0  0
    1.9633    0.7080   -0.0326 C   0  0  0  0  0  0  0  0  0  0  0  0
    3.2810    0.0380    0.3459 C   0  0  0  0  0  0  0  0  0  0  0  0
   -3.1517    1.1423    0.4377 H   0  0  0  0  0  0  0  0  0  0  0  0
   -3.9221   -0.4160   -0.0320 H   0  0  0  0  0  0  0  0  0  0  0  0
   -3.0985    0.5896   -1.2854 H   0  0  0  0  0  0  0  0  0  0  0  0
   -1.7442   -0.8009    1.1235 H   0  0  0  0  0  0  0  0  0  0  0  0
   -2.2521   -2.3027   -0.3976 H   0  0  0  0  0  0  0  0  0  0  0  0
   -0.6660    1.3651    0.4179 H   0  0  0  0  0  0  0  0  0  0  0  0
   -0.5159    0.7333   -1.2640 H   0  0  0  0  0  0  0  0  0  0  0  0
    0.7416   -0.5326    1.2643 H   0  0  0  0  0  0  0  0  0  0  0  0
    0.9171   -1.1520   -0.4228 H   0  0  0  0  0  0  0  0  0  0  0  0
    2.0065    1.0072   -1.1026 H   0  0  0  0  0  0  0  0  0  0  0  0
    1.8361    1.6243    0.5844 H   0  0  0  0  0  0  0  0  0  0  0  0
    3.4457   -0.8681   -0.2753 H   0  0  0  0  0  0  0  0  0  0  0  0
    3.2737   -0.2490    1.4191 H   0  0  0  0  0  0  0  0  0  0  0  0
    4.1202    0.7443    0.1730 H   0  0  0  0  0  0  0  0  0  0  0  0
  1  2  1  0
  2  4  1  0
  2  3  1  0
  4  5  1  0
  5  6  1  0
  6  7  1  0
  1  8  1  0
  1  9  1  0
  1 10  1  0
  2 11  1  1
  3 12  1  0
  4 13  1  0
  4 14  1  0
  5 15  1  0
  5 16  1  0
  6 17  1  0
  6 18  1  0
  7 19  1  0
  7 20  1  0
  7 21  1  0
M  END
$$$$
