Oc1ccncc1
     RDKit          3D

 12 12  0  0  0  0  0  0  0  0999 V2000
    2.0987   -0.8932    0.1806 O   0  0  0  0  0  0  0  0  0  0  0  0
    0.8081   -0.3832    0.0600 C   0  0  0  0  0  0  0  0  0  0  0  0
    0.5414    0.9634    0.3374 C   0  0  0  0  0  0  0  0  0  0  0  0
   -0.7646    1.4432    0.2065 C   0  0  0  0  0  0  0  0  0  0  0  0
   -1.7621    0.6063   -0.1866 N   0  0  0  0  0  0  0  0  0  0  0  0
   -1.5259   -0.7047   -0.4612 C   0  0  0  0  0  0  0  0  0  0  0  0
   -0.2338   -1.2235   -0.3424 C   0  0  0  0  0  0  0  0  0  0  0  0
    2.8738   -0.3081    0.4702 H   0  0  0  0  0  0  0  0  0  0  0  0
    1.3347    1.6302    0.6504 H   0  0  0  0  0  0  0  0  0  0  0  0
   -0.9850    2.4811    0.4176 H   0  0  0  0  0  0  0  0  0  0  0  0
   -2.3411   -1.3446   -0.7717 H   0  0  0  0  0  0  0  0  0  0  0  0
   -0.0444   -2.2668   -0.5606 H   0  0  0  0  0  0  0  0  0  0  0  0
  1  2  1  0
  2  7  2  0
  2  3  1  0
  3  4  2  0
  4  5  1  0
  5  6  2  0
  6  7  1  0
  1  8  1  0
  3  9  1  0
  4 10  1  0
  6 11  1  0
  7 12  1  0
M  END
$$$$
