C#CCCC
     RDKit          3D

 13 12  0  0  0  0  0  0  0  0999 V2000
    2.9938   -0.0971   -0.3315 C   0  0  0  0  0  0  0  0  0  0  0  0
    1.8194    0.1590   -0.4249 C   0  0  0  0  0  0  0  0  0  0  0  0
    0.3904    0.4712   -0.5391 C   0  0  0  0  0  0  0  0  0  0  0  0
   -0.4213   -0.3747    0.4447 C   0  0  0  0  0  0  0  0  0  0  0  0
   -1.9111   -0.0623    0.3390 C   0  0  0  0  0  0  0  0  0  0  0  0
    4.0246   -0.3221   -0.2494 H   0  0  0  0  0  0  0  0  0  0  0  0
    0.0625    0.2640   -1.5802 H   0  0  0  0  0  0  0  0  0  0  0  0
    0.2434    1.5512   -0.3240 H   0  0  0  0  0  0  0  0  0  0  0  0
   -0.2645   -1.4549    0.2300 H   0  0  0  0  0  0  0  0  0  0  0  0
   -0.0839   -0.1693    1.4846 H   0  0  0  0  0  0  0  0  0  0  0  0
   -2.2801   -0.2833   -0.6853 H   0  0  0  0  0  0  0  0  0  0  0  0
   -2.4745   -0.6889    1.0622 H   0  0  0  0  0  0  0  0  0  0  0  0
   -2.0988    1.0071    0.5740 H   0  0  0  0  0  0  0  0  0  0  0  0
  1  2  3  0
  2  3  1  0
  3  4  1  0
  4  5  1  0
  1  6  1  0
  3  7  1  0
  3  8  1  0
  4  9  1  0
  4 10  1  0
  5 11  1  0
  5 12  1  0
  5 13  1  0
M  END
$$$$
