CCCOC(C)C
     RDKit          3D

 21 20  0  0  0  0  0  0  0  0999 V2000
   -2.7655    0.7704    0.5772 C   0  0  0  0  0  0  0  0  0  0  0  0
   -2.0667   -0.5286    0.9733 C   0  0  0  0  0  0  0  0  0  0  0  0
   -0.8412   -0.8051    0.1017 C   0  0  0  0  0  0  0  0  0  0  0  0
    0.1297    0.2002    0.3131 O   0  0  0  0  0  0  0  0  0  0  0  0
    1.3208   -0.0912   -0.3981 C   0  0  0  0  0  0  0  0  0  0  0  0
    1.8767    1.2139   -0.9664 C   0  0  0  0  0  0  0  0  0  0  0  0
    2.3397   -0.7297    0.5499 C   0  0  0  0  0  0  0  0  0  0  0  0
   -2.0839    1.6365    0.7148 H   0  0  0  0  0  0  0  0  0  0  0  0
   -3.6600    0.9203    1.2177 H   0  0  0  0  0  0  0  0  0  0  0  0
   -3.0924    0.7253   -0.4835 H   0  0  0  0  0  0  0  0  0  0  0  0
   -2.7849   -1.3702    0.8661 H   0  0  0  0  0  0  0  0  0  0  0  0
   -1.7582   -0.4714    2.0398 H   0  0  0  0  0  0  0  0  0  0  0  0
   -0.4398   -1.8053    0.3822 H   0  0  0  0  0  0  0  0  0  0  0  0
   -1.1547   -0.8276   -0.9671 H   0  0  0  0  0  0  0  0  0  0  0  0
    1.1625   -0.7796   -1.2642 H   0  0  0  0  0  0  0  0  0  0  0  0
    2.8139    1.0224   -1.5319 H   0  0  0  0  0  0  0  0  0  0  0  0
    1.1351    1.6656   -1.6590 H   0  0  0  0  0  0  0  0  0  0  0  0
    2.0863    1.9373   -0.1492 H   0  0  0  0  0  0  0  0  0  0  0  0
    3.2915   -0.9324    0.0138 H   0  0  0  0  0  0  0  0  0  0  0  0
    1.9476   -1.6932    0.9373 H   0  0  0  0  0  0  0  0  0  0  0  0
    2.5437   -0.0577    1.4109 H   0  0  0  0  0  0  0  0  0  0  0  0
  1  2  1  0
  2  3  1  0
  3  4  1  0
  4  5  1  0
  5  7  1  0
  5  6  1  0
  1  8  1  0
  1  9  1  0
  1 10  1  0
  2 11  1  0
  2 12  1  0
  3 13  1  0
  3 14  1  0
  5 15  1  0
  6 16  1  0
  6 17  1  0
  6 18  1  0
  7 19  1  0
  7 20  1  0
  7 21  1  0
M  END
$$$$
