C1=CCC=CC1
     RDKit          3D

 14 14  0  0  0  0  0  0  0  0999 V2000
   -0.9536   -1.0489   -0.1826 C   0  0  0  0  0  0  0  0  0  0  0  0
    0.3418   -1.3362   -0.3720 C   0  0  0  0  0  0  0  0  0  0  0  0
    1.4372   -0.3295   -0.1319 C   0  0  0  0  0  0  0  0  0  0  0  0
    0.9319    1.0832    0.0094 C   0  0  0  0  0  0  0  0  0  0  0  0
   -0.3662    1.3693    0.1816 C   0  0  0  0  0  0  0  0  0  0  0  0
   -1.4171    0.2977    0.3074 C   0  0  0  0  0  0  0  0  0  0  0  0
   -1.6934   -1.8303   -0.3278 H   0  0  0  0  0  0  0  0  0  0  0  0
    0.6201   -2.3424   -0.6705 H   0  0  0  0  0  0  0  0  0  0  0  0
    1.9979   -0.6085    0.7845 H   0  0  0  0  0  0  0  0  0  0  0  0
    2.1368   -0.3668   -0.9931 H   0  0  0  0  0  0  0  0  0  0  0  0
    1.6527    1.8950   -0.0090 H   0  0  0  0  0  0  0  0  0  0  0  0
   -0.6646    2.4052    0.3108 H   0  0  0  0  0  0  0  0  0  0  0  0
   -2.3087    0.6027   -0.2796 H   0  0  0  0  0  0  0  0  0  0  0  0
   -1.7149    0.2094    1.3731 H   0  0  0  0  0  0  0  0  0  0  0  0
  1  6  1  0
  1  2  2  0
  2  3  1  0
  3  4  1  0
  4  5  2  0
  5  6  1  0
  1  7  1  0
  2  8  1  0
  3  9  1  0
  3 10  1  0
  4 11  1  0
  5 12  1  0
  6 13  1  0
  6 14  1  0
M  END
$$$$
