CCCCCCCCl
     RDKit          3D

 23 22  0  0  0  0  0  0  0  0999 V2000
   -2.8932    0.4903    0.3261 C   0  0  0  0  0  0  0  0  0  0  0  0
   -1.5886    1.2198    0.0084 C   0  0  0  0  0  0  0  0  0  0  0  0
   -0.7076    0.4606   -0.9992 C   0  0  0  0  0  0  0  0  0  0  0  0
   -0.2241   -0.9237   -0.5226 C   0  0  0  0  0  0  0  0  0  0  0  0
    0.5681   -0.9218    0.8002 C   0  0  0  0  0  0  0  0  0  0  0  0
    1.8134   -0.0177    0.8091 C   0  0  0  0  0  0  0  0  0  0  0  0
    2.8624   -0.4415   -0.2212 C   0  0  0  0  0  0  0  0  0  0  0  0
    4.3421    0.5297   -0.0194 Cl  0  0  0  0  0  0  0  0  0  0  0  0
   -2.6933   -0.4367    0.9025 H   0  0  0  0  0  0  0  0  0  0  0  0
   -3.4347    0.2365   -0.6098 H   0  0  0  0  0  0  0  0  0  0  0  0
   -3.5420    1.1468    0.9434 H   0  0  0  0  0  0  0  0  0  0  0  0
   -1.0303    1.4168    0.9473 H   0  0  0  0  0  0  0  0  0  0  0  0
   -1.8422    2.2086   -0.4314 H   0  0  0  0  0  0  0  0  0  0  0  0
   -1.2801    0.3250   -1.9426 H   0  0  0  0  0  0  0  0  0  0  0  0
    0.1698    1.0908   -1.2564 H   0  0  0  0  0  0  0  0  0  0  0  0
    0.4007   -1.3743   -1.3226 H   0  0  0  0  0  0  0  0  0  0  0  0
   -1.0998   -1.5973   -0.4085 H   0  0  0  0  0  0  0  0  0  0  0  0
   -0.1024   -0.6178    1.6316 H   0  0  0  0  0  0  0  0  0  0  0  0
    0.8830   -1.9652    1.0203 H   0  0  0  0  0  0  0  0  0  0  0  0
    2.2691   -0.0768    1.8215 H   0  0  0  0  0  0  0  0  0  0  0  0
    1.5262    1.0418    0.6430 H   0  0  0  0  0  0  0  0  0  0  0  0
    2.4830   -0.2801   -1.2514 H   0  0  0  0  0  0  0  0  0  0  0  0
    3.1206   -1.5137   -0.0895 H   0  0  0  0  0  0  0  0  0  0  0  0
  1  2  1  0
  2  3  1  0
  3  4  1  0
  4  5  1  0
  5  6  1  0
  6  7  1  0
  7  8  1  0
  1  9  1  0
  1 10  1  0
  1 11  1  0
  2 12  1  0
  2 13  1  0
  3 14  1  0
  3 15  1  0
  4 16  1  0
  4 17  1  0
  5 18  1  0
  5 19  1  0
  6 20  1  0
  6 21  1  0
  7 22  1  0
  7 23  1  0
M  END
$$$$
