
     RDKit          3D

 26 27  0  0  0  0  0  0  0  0999 V2000
    1.8810   -0.2454   -1.1572 O   0  0  0  0  0  0  0  0  0  0  0  0
    2.1731    0.1559    0.0035 C   0  0  0  0  0  0  0  0  0  0  0  0
    3.4624   -0.1202    0.5574 N   0  0  0  0  0  0  0  0  0  0  0  0
    4.4691   -0.8791   -0.1737 C   0  0  0  0  0  0  0  0  0  0  0  0
    1.2467    0.8854    0.7567 O   0  0  0  0  0  0  0  0  0  0  0  0
   -0.0663    1.1213    0.3326 C   0  0  0  0  0  0  0  0  0  0  0  0
   -1.0055    0.0737    0.1788 C   0  0  0  0  0  0  0  0  0  0  0  0
   -0.6888   -1.2584    0.5087 C   0  0  0  0  0  0  0  0  0  0  0  0
   -1.6349   -2.2728    0.3402 C   0  0  0  0  0  0  0  0  0  0  0  0
   -2.9082   -1.9742   -0.1471 C   0  0  0  0  0  0  0  0  0  0  0  0
   -3.2492   -0.6566   -0.4589 C   0  0  0  0  0  0  0  0  0  0  0  0
   -2.3110    0.3741   -0.2925 C   0  0  0  0  0  0  0  0  0  0  0  0
   -2.6624    1.7017   -0.5775 C   0  0  0  0  0  0  0  0  0  0  0  0
   -1.7375    2.7289   -0.3877 C   0  0  0  0  0  0  0  0  0  0  0  0
   -0.4508    2.4410    0.0695 C   0  0  0  0  0  0  0  0  0  0  0  0
    3.6855    0.2286    1.5165 H   0  0  0  0  0  0  0  0  0  0  0  0
    4.7243   -0.3538   -1.1181 H   0  0  0  0  0  0  0  0  0  0  0  0
    4.0811   -1.8933   -0.4054 H   0  0  0  0  0  0  0  0  0  0  0  0
    5.3878   -0.9778    0.4421 H   0  0  0  0  0  0  0  0  0  0  0  0
    0.2808   -1.5228    0.9088 H   0  0  0  0  0  0  0  0  0  0  0  0
   -1.3811   -3.2942    0.5930 H   0  0  0  0  0  0  0  0  0  0  0  0
   -3.6363   -2.7649   -0.2744 H   0  0  0  0  0  0  0  0  0  0  0  0
   -4.2469   -0.4424   -0.8234 H   0  0  0  0  0  0  0  0  0  0  0  0
   -3.6556    1.9458   -0.9356 H   0  0  0  0  0  0  0  0  0  0  0  0
   -2.0176    3.7527   -0.5998 H   0  0  0  0  0  0  0  0  0  0  0  0
    0.2604    3.2465    0.2025 H   0  0  0  0  0  0  0  0  0  0  0  0
  1  2  2  0
  2  3  1  0
  2  5  1  0
  3  4  1  0
  5  6  1  0
  6 15  2  0
  6  7  1  0
  7  8  2  0
  7 12  1  0
  8  9  1  0
  9 10  2  0
 10 11  1  0
 11 12  2  0
 12 13  1  0
 13 14  2  0
 14 15  1  0
  3 16  1  0
  4 17  1  0
  4 18  1  0
  4 19  1  0
  8 20  1  0
  9 21  1  0
 10 22  1  0
 11 23  1  0
 13 24  1  0
 14 25  1  0
 15 26  1  0
M  END
$$$$
