O=C(C1=CCCN(C)C1)OC
     RDKit          3D

 24 24  0  0  0  0  0  0  0  0999 V2000
    2.2454    0.6007   -1.3443 O   0  0  0  0  0  0  0  0  0  0  0  0
    1.9497    0.1580   -0.2001 C   0  0  0  0  0  0  0  0  0  0  0  0
    0.5278    0.0158    0.1892 C   0  0  0  0  0  0  0  0  0  0  0  0
    0.2017   -0.5571    1.3617 C   0  0  0  0  0  0  0  0  0  0  0  0
   -1.2221   -0.6965    1.8242 C   0  0  0  0  0  0  0  0  0  0  0  0
   -2.2134   -0.5471    0.6701 C   0  0  0  0  0  0  0  0  0  0  0  0
   -1.8519    0.6321   -0.1336 N   0  0  0  0  0  0  0  0  0  0  0  0
   -2.8926    0.8979   -1.1385 C   0  0  0  0  0  0  0  0  0  0  0  0
   -0.5527    0.4082   -0.7991 C   0  0  0  0  0  0  0  0  0  0  0  0
    2.9647   -0.1973    0.6959 O   0  0  0  0  0  0  0  0  0  0  0  0
    4.3460   -0.0829    0.3762 C   0  0  0  0  0  0  0  0  0  0  0  0
    0.9756   -0.8599    2.0564 H   0  0  0  0  0  0  0  0  0  0  0  0
   -1.4224    0.0881    2.5852 H   0  0  0  0  0  0  0  0  0  0  0  0
   -1.3589   -1.6895    2.3029 H   0  0  0  0  0  0  0  0  0  0  0  0
   -3.2323   -0.4258    1.1008 H   0  0  0  0  0  0  0  0  0  0  0  0
   -2.2082   -1.4711    0.0465 H   0  0  0  0  0  0  0  0  0  0  0  0
   -3.8567    1.1285   -0.6363 H   0  0  0  0  0  0  0  0  0  0  0  0
   -3.0360    0.0251   -1.8144 H   0  0  0  0  0  0  0  0  0  0  0  0
   -2.6188    1.7863   -1.7475 H   0  0  0  0  0  0  0  0  0  0  0  0
   -0.6339   -0.3949   -1.5668 H   0  0  0  0  0  0  0  0  0  0  0  0
   -0.2462    1.3469   -1.3110 H   0  0  0  0  0  0  0  0  0  0  0  0
    4.5987    0.9758    0.1553 H   0  0  0  0  0  0  0  0  0  0  0  0
    4.9500   -0.4236    1.2420 H   0  0  0  0  0  0  0  0  0  0  0  0
    4.5866   -0.7179   -0.5027 H   0  0  0  0  0  0  0  0  0  0  0  0
  1  2  2  0
  2  3  1  0
  2 10  1  0
  3  4  2  0
  3  9  1  0
  4  5  1  0
  5  6  1  0
  6  7  1  0
  7  8  1  0
  7  9  1  0
 10 11  1  0
  4 12  1  0
  5 13  1  0
  5 14  1  0
  6 15  1  0
  6 16  1  0
  8 17  1  0
  8 18  1  0
  8 19  1  0
  9 20  1  0
  9 21  1  0
 11 22  1  0
 11 23  1  0
 11 24  1  0
M  END
$$$$
