ClC(Cl)(Cl)CCl
     RDKit          3D

  8  7  0  0  0  0  0  0  0  0999 V2000
    1.4475   -0.2087    1.5330 Cl  0  0  0  0  0  0  0  0  0  0  0  0
    0.7090   -0.0456   -0.0831 C   0  0  0  0  0  0  0  0  0  0  0  0
    1.2776    1.4676   -0.8383 Cl  0  0  0  0  0  0  0  0  0  0  0  0
    1.2559   -1.4115   -1.0879 Cl  0  0  0  0  0  0  0  0  0  0  0  0
   -0.8201   -0.0664    0.0118 C   0  0  0  0  0  0  0  0  0  0  0  0
   -1.4539    1.2766    1.0067 Cl  0  0  0  0  0  0  0  0  0  0  0  0
   -1.1555   -1.0247    0.4625 H   0  0  0  0  0  0  0  0  0  0  0  0
   -1.2606    0.0127   -1.0048 H   0  0  0  0  0  0  0  0  0  0  0  0
  1  2  1  0
  2  5  1  0
  2  4  1  0
  2  3  1  0
  5  6  1  0
  5  7  1  0
  5  8  1  0
M  END
$$$$
