Clc(c(Cl)cc(Cl)c1)c1Cl
     RDKit          3D

 12 12  0  0  0  0  0  0  0  0999 V2000
   -3.1108    0.2381    0.0302 Cl  0  0  0  0  0  0  0  0  0  0  0  0
   -1.3527    0.1035    0.0131 C   0  0  0  0  0  0  0  0  0  0  0  0
   -0.7388   -1.1625    0.0472 C   0  0  0  0  0  0  0  0  0  0  0  0
   -1.6926   -2.6394    0.1073 Cl  0  0  0  0  0  0  0  0  0  0  0  0
    0.6570   -1.2631    0.0334 C   0  0  0  0  0  0  0  0  0  0  0  0
    1.4459   -0.1107   -0.0140 C   0  0  0  0  0  0  0  0  0  0  0  0
    3.1949   -0.2445   -0.0310 Cl  0  0  0  0  0  0  0  0  0  0  0  0
    0.8408    1.1485   -0.0480 C   0  0  0  0  0  0  0  0  0  0  0  0
   -0.5541    1.2615   -0.0346 C   0  0  0  0  0  0  0  0  0  0  0  0
   -1.2730    2.8663   -0.0785 Cl  0  0  0  0  0  0  0  0  0  0  0  0
    1.1287   -2.2375    0.0596 H   0  0  0  0  0  0  0  0  0  0  0  0
    1.4547    2.0398   -0.0847 H   0  0  0  0  0  0  0  0  0  0  0  0
  1  2  1  0
  2  3  2  0
  2  9  1  0
  3  5  1  0
  3  4  1  0
  5  6  2  0
  6  8  1  0
  6  7  1  0
  8  9  2  0
  9 10  1  0
  5 11  1  0
  8 12  1  0
M  END
$$$$
