n(cc(c(n1)O)C)c1S
     RDKit          3D

 15 15  0  0  0  0  0  0  0  0999 V2000
    1.5804   -1.0530   -0.4330 N   0  0  0  0  0  0  0  0  0  0  0  0
    0.3138   -1.4040   -0.0916 C   0  0  0  0  0  0  0  0  0  0  0  0
   -0.6602   -0.4162    0.1030 C   0  0  0  0  0  0  0  0  0  0  0  0
   -0.2840    0.9233   -0.0755 C   0  0  0  0  0  0  0  0  0  0  0  0
    0.9965    1.2260   -0.4176 N   0  0  0  0  0  0  0  0  0  0  0  0
   -1.2136    1.9458    0.0948 O   0  0  0  0  0  0  0  0  0  0  0  0
   -2.0698   -0.7814    0.4688 C   0  0  0  0  0  0  0  0  0  0  0  0
    1.9243    0.2505   -0.5944 C   0  0  0  0  0  0  0  0  0  0  0  0
    3.5978    0.6823   -1.0427 S   0  0  0  0  0  0  0  0  0  0  0  0
    0.0693   -2.4516    0.0275 H   0  0  0  0  0  0  0  0  0  0  0  0
   -0.9495    2.9155   -0.0324 H   0  0  0  0  0  0  0  0  0  0  0  0
   -2.1697   -1.8707    0.6623 H   0  0  0  0  0  0  0  0  0  0  0  0
   -2.3736   -0.2356    1.3869 H   0  0  0  0  0  0  0  0  0  0  0  0
   -2.7528   -0.5053   -0.3618 H   0  0  0  0  0  0  0  0  0  0  0  0
    3.9910    0.7743    0.3056 H   0  0  0  0  0  0  0  0  0  0  0  0
  1  2  2  0
  1  8  1  0
  2  3  1  0
  3  7  1  0
  3  4  2  0
  4  5  1  0
  4  6  1  0
  5  8  2  0
  8  9  1  0
  2 10  1  0
  6 11  1  0
  7 12  1  0
  7 13  1  0
  7 14  1  0
  9 15  1  0
M  END
$$$$
