CC(O)=O
     RDKit          3D

  8  7  0  0  0  0  0  0  0  0999 V2000
   -0.8257   -0.1883    0.0446 C   0  0  0  0  0  0  0  0  0  0  0  0
    0.4494    0.5912    0.0299 C   0  0  0  0  0  0  0  0  0  0  0  0
    1.6760   -0.0458   -0.1379 O   0  0  0  0  0  0  0  0  0  0  0  0
    0.4156    1.8415    0.1712 O   0  0  0  0  0  0  0  0  0  0  0  0
   -1.4846    0.1609   -0.7777 H   0  0  0  0  0  0  0  0  0  0  0  0
   -0.6262   -1.2716   -0.0913 H   0  0  0  0  0  0  0  0  0  0  0  0
   -1.3424   -0.0379    1.0154 H   0  0  0  0  0  0  0  0  0  0  0  0
    1.7379   -1.0501   -0.2542 H   0  0  0  0  0  0  0  0  0  0  0  0
  1  2  1  0
  2  3  1  0
  2  4  2  0
  1  5  1  0
  1  6  1  0
  1  7  1  0
  3  8  1  0
M  END
$$$$
