O=C1C(C)=CNC(N1)=O
     RDKit          3D

 15 15  0  0  0  0  0  0  0  0999 V2000
    0.5530    2.2428   -0.5667 O   0  0  0  0  0  0  0  0  0  0  0  0
   -0.0257    1.1679   -0.2501 C   0  0  0  0  0  0  0  0  0  0  0  0
    0.7136   -0.0127   -0.0769 C   0  0  0  0  0  0  0  0  0  0  0  0
    2.2033   -0.0360   -0.2763 C   0  0  0  0  0  0  0  0  0  0  0  0
    0.0180   -1.1794    0.2612 C   0  0  0  0  0  0  0  0  0  0  0  0
   -1.3305   -1.1480    0.4248 N   0  0  0  0  0  0  0  0  0  0  0  0
   -2.0270    0.0087    0.2592 C   0  0  0  0  0  0  0  0  0  0  0  0
   -1.3756    1.1553   -0.0764 N   0  0  0  0  0  0  0  0  0  0  0  0
   -3.2776    0.0179    0.4156 O   0  0  0  0  0  0  0  0  0  0  0  0
    2.6790    0.7553    0.3407 H   0  0  0  0  0  0  0  0  0  0  0  0
    2.6376   -1.0145    0.0203 H   0  0  0  0  0  0  0  0  0  0  0  0
    2.4375    0.1461   -1.3461 H   0  0  0  0  0  0  0  0  0  0  0  0
    0.5485   -2.1145    0.3950 H   0  0  0  0  0  0  0  0  0  0  0  0
   -1.8337   -2.0278    0.6799 H   0  0  0  0  0  0  0  0  0  0  0  0
   -1.9203    2.0389   -0.2043 H   0  0  0  0  0  0  0  0  0  0  0  0
  1  2  2  0
  2  3  1  0
  2  8  1  0
  3  4  1  0
  3  5  2  0
  5  6  1  0
  6  7  1  0
  7  8  1  0
  7  9  2  0
  4 10  1  0
  4 11  1  0
  4 12  1  0
  5 13  1  0
  6 14  1  0
  8 15  1  0
M  END
$$$$
