S=C2C1=C(N=CN2)N=CC=N1
     RDKit          3D

 15 16  0  0  0  0  0  0  0  0999 V2000
    1.2898    2.7933    0.1011 S   0  0  0  0  0  0  0  0  0  0  0  0
    1.1723    1.1553    0.0871 C   0  0  0  0  0  0  0  0  0  0  0  0
   -0.0759    0.5216   -0.0036 C   0  0  0  0  0  0  0  0  0  0  0  0
   -0.1143   -0.8833   -0.0112 C   0  0  0  0  0  0  0  0  0  0  0  0
    1.0381   -1.5943    0.0680 N   0  0  0  0  0  0  0  0  0  0  0  0
    2.2385   -0.9638    0.1553 C   0  0  0  0  0  0  0  0  0  0  0  0
    2.3024    0.3962    0.1645 N   0  0  0  0  0  0  0  0  0  0  0  0
   -1.3113   -1.5200   -0.0982 N   0  0  0  0  0  0  0  0  0  0  0  0
   -2.4732   -0.8183   -0.1781 C   0  0  0  0  0  0  0  0  0  0  0  0
   -2.4379    0.5793   -0.1707 C   0  0  0  0  0  0  0  0  0  0  0  0
   -1.2420    1.2201   -0.0838 N   0  0  0  0  0  0  0  0  0  0  0  0
    3.1465   -1.5492    0.2176 H   0  0  0  0  0  0  0  0  0  0  0  0
    3.2396    0.8540    0.2325 H   0  0  0  0  0  0  0  0  0  0  0  0
   -3.4177   -1.3413   -0.2468 H   0  0  0  0  0  0  0  0  0  0  0  0
   -3.3546    1.1502   -0.2337 H   0  0  0  0  0  0  0  0  0  0  0  0
  1  2  2  0
  2  3  1  0
  2  7  1  0
  3  4  2  0
  3 11  1  0
  4  8  1  0
  4  5  1  0
  5  6  2  0
  6  7  1  0
  8  9  2  0
  9 10  1  0
 10 11  2  0
  6 12  1  0
  7 13  1  0
  9 14  1  0
 10 15  1  0
M  END
$$$$
