ClC(Cl)(Cl)
     RDKit          3D

  5  4  0  0  0  0  0  0  0  0999 V2000
   -0.5797    1.5807   -0.4313 Cl  0  0  0  0  0  0  0  0  0  0  0  0
    0.0049   -0.0006    0.1336 C   0  0  0  0  0  0  0  0  0  0  0  0
   -1.1019   -1.2754   -0.4242 Cl  0  0  0  0  0  0  0  0  0  0  0  0
    1.6310   -0.2995   -0.5204 Cl  0  0  0  0  0  0  0  0  0  0  0  0
    0.0456   -0.0052    1.2423 H   0  0  0  0  0  0  0  0  0  0  0  0
  1  2  1  0
  2  4  1  0
  2  3  1  0
  2  5  1  0
M  END
$$$$
