O=C1CCC2C(CCC3C2CCC4(C)C3CCC4(C#C)O)=C1
     RDKit          3D

 48 51  0  0  1  0  0  0  0  0999 V2000
   -6.2678   -0.5319   -0.2430 O   0  0  0  0  0  0  0  0  0  0  0  0
   -5.0612   -0.3359    0.0598 C   0  0  0  0  0  0  0  0  0  0  0  0
   -4.4798   -1.0121    1.2695 C   0  0  0  0  0  0  0  0  0  0  0  0
   -2.9498   -1.0881    1.1816 C   0  0  0  0  0  0  0  0  0  0  0  0
   -2.3602    0.3026    0.8535 C   0  0  2  0  0  0  0  0  0  0  0  0
   -2.9696    0.8459   -0.4404 C   0  0  0  0  0  0  0  0  0  0  0  0
   -2.1045    1.6777   -1.3730 C   0  0  0  0  0  0  0  0  0  0  0  0
   -0.7539    0.9894   -1.7089 C   0  0  0  0  0  0  0  0  0  0  0  0
   -0.3709   -0.1052   -0.6851 C   0  0  2  0  0  0  0  0  0  0  0  0
   -0.8093    0.3232    0.7456 C   0  0  2  0  0  0  0  0  0  0  0  0
   -0.0418   -0.4530    1.8410 C   0  0  0  0  0  0  0  0  0  0  0  0
    1.4911   -0.1871    1.7776 C   0  0  0  0  0  0  0  0  0  0  0  0
    2.0411    0.0550    0.3244 C   0  0  2  0  0  0  0  0  0  0  0  0
    2.2087    1.5925    0.0741 C   0  0  0  0  0  0  0  0  0  0  0  0
    1.1012   -0.5992   -0.7037 C   0  0  2  0  0  0  0  0  0  0  0  0
    1.8808   -0.6422   -2.0135 C   0  0  0  0  0  0  0  0  0  0  0  0
    3.3519   -0.7769   -1.5754 C   0  0  0  0  0  0  0  0  0  0  0  0
    3.3730   -0.6886   -0.0219 C   0  0  1  0  0  0  0  0  0  0  0  0
    4.5824    0.0132    0.4700 C   0  0  0  0  0  0  0  0  0  0  0  0
    5.5677    0.5812    0.8704 C   0  0  0  0  0  0  0  0  0  0  0  0
    3.3523   -1.9923    0.5189 O   0  0  0  0  0  0  0  0  0  0  0  0
   -4.2465    0.5796   -0.7582 C   0  0  0  0  0  0  0  0  0  0  0  0
   -4.7730   -0.4382    2.1749 H   0  0  0  0  0  0  0  0  0  0  0  0
   -4.8924   -2.0402    1.3596 H   0  0  0  0  0  0  0  0  0  0  0  0
   -2.6631   -1.8266    0.4022 H   0  0  0  0  0  0  0  0  0  0  0  0
   -2.5677   -1.4486    2.1601 H   0  0  0  0  0  0  0  0  0  0  0  0
   -2.6535    0.9892    1.6797 H   0  0  0  0  0  0  0  0  0  0  0  0
   -1.8987    2.6453   -0.8662 H   0  0  0  0  0  0  0  0  0  0  0  0
   -2.6356    1.9173   -2.3204 H   0  0  0  0  0  0  0  0  0  0  0  0
    0.0343    1.7676   -1.7667 H   0  0  0  0  0  0  0  0  0  0  0  0
   -0.8256    0.5232   -2.7161 H   0  0  0  0  0  0  0  0  0  0  0  0
   -0.9776   -0.9949   -0.9716 H   0  0  0  0  0  0  0  0  0  0  0  0
   -0.5444    1.3874    0.9046 H   0  0  0  0  0  0  0  0  0  0  0  0
   -0.4210   -0.1616    2.8446 H   0  0  0  0  0  0  0  0  0  0  0  0
   -0.2198   -1.5432    1.7153 H   0  0  0  0  0  0  0  0  0  0  0  0
    2.0000   -1.0432    2.2665 H   0  0  0  0  0  0  0  0  0  0  0  0
    1.7212    0.6902    2.4210 H   0  0  0  0  0  0  0  0  0  0  0  0
    1.2694    2.1594    0.1623 H   0  0  0  0  0  0  0  0  0  0  0  0
    2.9021    2.0330    0.8212 H   0  0  0  0  0  0  0  0  0  0  0  0
    2.6247    1.8072   -0.9314 H   0  0  0  0  0  0  0  0  0  0  0  0
    1.0183   -1.6739   -0.4035 H   0  0  0  0  0  0  0  0  0  0  0  0
    1.7448    0.2916   -2.5986 H   0  0  0  0  0  0  0  0  0  0  0  0
    1.5639   -1.5075   -2.6359 H   0  0  0  0  0  0  0  0  0  0  0  0
    3.7757   -1.7399   -1.9352 H   0  0  0  0  0  0  0  0  0  0  0  0
    3.9463    0.0449   -2.0342 H   0  0  0  0  0  0  0  0  0  0  0  0
    6.4320    1.0803    1.2219 H   0  0  0  0  0  0  0  0  0  0  0  0
    4.1868   -2.4569    0.2436 H   0  0  0  0  0  0  0  0  0  0  0  0
   -4.6820    0.9906   -1.6612 H   0  0  0  0  0  0  0  0  0  0  0  0
  1  2  2  0
  2  3  1  0
  2 22  1  0
  3  4  1  0
  4  5  1  0
  5 10  1  0
  5  6  1  0
  6  7  1  0
  6 22  2  0
  7  8  1  0
  8  9  1  0
  9 10  1  0
  9 15  1  0
 10 11  1  0
 11 12  1  0
 12 13  1  0
 13 14  1  6
 13 15  1  0
 13 18  1  0
 15 16  1  0
 16 17  1  0
 17 18  1  0
 18 19  1  6
 18 21  1  0
 19 20  3  0
  3 23  1  0
  3 24  1  0
  4 25  1  0
  4 26  1  0
  5 27  1  1
  7 28  1  0
  7 29  1  0
  8 30  1  0
  8 31  1  0
  9 32  1  6
 10 33  1  1
 11 34  1  0
 11 35  1  0
 12 36  1  0
 12 37  1  0
 14 38  1  0
 14 39  1  0
 14 40  1  0
 15 41  1  1
 16 42  1  0
 16 43  1  0
 17 44  1  0
 17 45  1  0
 20 46  1  0
 21 47  1  0
 22 48  1  0
M  END
$$$$
