O=C1CCC2(C)C(CCC3C2CCC4(C)C3CCC4(O)C(C)=O)=C1
     RDKit          3D

 54 57  0  0  1  0  0  0  0  0999 V2000
   -6.0606    0.5985    1.5035 O   0  0  0  0  0  0  0  0  0  0  0  0
   -4.9251    0.6240    0.9594 C   0  0  0  0  0  0  0  0  0  0  0  0
   -4.2105    1.9342    0.8052 C   0  0  0  0  0  0  0  0  0  0  0  0
   -2.7061    1.7309    0.5712 C   0  0  0  0  0  0  0  0  0  0  0  0
   -2.4053    0.6538   -0.5156 C   0  0  2  0  0  0  0  0  0  0  0  0
   -2.8969    1.1543   -1.8963 C   0  0  0  0  0  0  0  0  0  0  0  0
   -3.1568   -0.6462   -0.1841 C   0  0  0  0  0  0  0  0  0  0  0  0
   -2.5000   -1.9742   -0.5247 C   0  0  0  0  0  0  0  0  0  0  0  0
   -1.0918   -2.1076    0.1116 C   0  0  0  0  0  0  0  0  0  0  0  0
   -0.4835   -0.7347    0.4835 C   0  0  2  0  0  0  0  0  0  0  0  0
   -0.8665    0.3283   -0.5926 C   0  0  2  0  0  0  0  0  0  0  0  0
    0.0972    1.5411   -0.5566 C   0  0  0  0  0  0  0  0  0  0  0  0
    1.5670    1.1328   -0.8695 C   0  0  0  0  0  0  0  0  0  0  0  0
    1.9658   -0.2983   -0.3461 C   0  0  2  0  0  0  0  0  0  0  0  0
    1.8958   -1.3154   -1.5351 C   0  0  0  0  0  0  0  0  0  0  0  0
    1.0351   -0.7041    0.8099 C   0  0  2  0  0  0  0  0  0  0  0  0
    1.6936   -1.9017    1.4832 C   0  0  0  0  0  0  0  0  0  0  0  0
    3.2026   -1.6883    1.2618 C   0  0  0  0  0  0  0  0  0  0  0  0
    3.3750   -0.4378    0.3398 C   0  0  1  0  0  0  0  0  0  0  0  0
    4.3755   -0.6900   -0.6228 O   0  0  0  0  0  0  0  0  0  0  0  0
    3.7707    0.7905    1.1778 C   0  0  0  0  0  0  0  0  0  0  0  0
    4.7365    1.8252    0.6669 C   0  0  0  0  0  0  0  0  0  0  0  0
    3.3000    0.9516    2.2947 O   0  0  0  0  0  0  0  0  0  0  0  0
   -4.3333   -0.6291    0.4640 C   0  0  0  0  0  0  0  0  0  0  0  0
   -4.3530    2.5426    1.7244 H   0  0  0  0  0  0  0  0  0  0  0  0
   -4.6587    2.4969   -0.0404 H   0  0  0  0  0  0  0  0  0  0  0  0
   -2.2445    1.4370    1.5379 H   0  0  0  0  0  0  0  0  0  0  0  0
   -2.2657    2.7093    0.2811 H   0  0  0  0  0  0  0  0  0  0  0  0
   -2.4328    2.1295   -2.1532 H   0  0  0  0  0  0  0  0  0  0  0  0
   -3.9996    1.2796   -1.9114 H   0  0  0  0  0  0  0  0  0  0  0  0
   -2.6449    0.4251   -2.6961 H   0  0  0  0  0  0  0  0  0  0  0  0
   -3.1264   -2.8391   -0.2140 H   0  0  0  0  0  0  0  0  0  0  0  0
   -2.4031   -2.0309   -1.6304 H   0  0  0  0  0  0  0  0  0  0  0  0
   -0.4329   -2.6535   -0.5941 H   0  0  0  0  0  0  0  0  0  0  0  0
   -1.1684   -2.7246    1.0338 H   0  0  0  0  0  0  0  0  0  0  0  0
   -0.9850   -0.4497    1.4362 H   0  0  0  0  0  0  0  0  0  0  0  0
   -0.7131   -0.1266   -1.5895 H   0  0  0  0  0  0  0  0  0  0  0  0
   -0.2235    2.3087   -1.2921 H   0  0  0  0  0  0  0  0  0  0  0  0
    0.0642    2.0103    0.4507 H   0  0  0  0  0  0  0  0  0  0  0  0
    1.7187    1.1906   -1.9697 H   0  0  0  0  0  0  0  0  0  0  0  0
    2.2170    1.9248   -0.4537 H   0  0  0  0  0  0  0  0  0  0  0  0
    2.1671   -2.3436   -1.2188 H   0  0  0  0  0  0  0  0  0  0  0  0
    0.9074   -1.3778   -2.0139 H   0  0  0  0  0  0  0  0  0  0  0  0
    2.6037   -1.0174   -2.3376 H   0  0  0  0  0  0  0  0  0  0  0  0
    1.1129    0.1111    1.5668 H   0  0  0  0  0  0  0  0  0  0  0  0
    1.4464   -1.9333    2.5668 H   0  0  0  0  0  0  0  0  0  0  0  0
    1.3755   -2.8563    1.0138 H   0  0  0  0  0  0  0  0  0  0  0  0
    3.6247   -2.5933    0.7709 H   0  0  0  0  0  0  0  0  0  0  0  0
    3.7309   -1.5730    2.2338 H   0  0  0  0  0  0  0  0  0  0  0  0
    5.2116   -0.9167   -0.1358 H   0  0  0  0  0  0  0  0  0  0  0  0
    4.9610    1.6865   -0.4104 H   0  0  0  0  0  0  0  0  0  0  0  0
    4.2987    2.8374    0.7956 H   0  0  0  0  0  0  0  0  0  0  0  0
    5.6818    1.7660    1.2454 H   0  0  0  0  0  0  0  0  0  0  0  0
   -4.8483   -1.5573    0.6814 H   0  0  0  0  0  0  0  0  0  0  0  0
  1  2  2  0
  2  3  1  0
  2 24  1  0
  3  4  1  0
  4  5  1  0
  5  6  1  6
  5 11  1  0
  5  7  1  0
  7  8  1  0
  7 24  2  0
  8  9  1  0
  9 10  1  0
 10 11  1  0
 10 16  1  0
 11 12  1  0
 12 13  1  0
 13 14  1  0
 14 15  1  6
 14 16  1  0
 14 19  1  0
 16 17  1  0
 17 18  1  0
 18 19  1  0
 19 21  1  1
 19 20  1  0
 21 22  1  0
 21 23  2  0
  3 25  1  0
  3 26  1  0
  4 27  1  0
  4 28  1  0
  6 29  1  0
  6 30  1  0
  6 31  1  0
  8 32  1  0
  8 33  1  0
  9 34  1  0
  9 35  1  0
 10 36  1  1
 11 37  1  6
 12 38  1  0
 12 39  1  0
 13 40  1  0
 13 41  1  0
 15 42  1  0
 15 43  1  0
 15 44  1  0
 16 45  1  1
 17 46  1  0
 17 47  1  0
 18 48  1  0
 18 49  1  0
 20 50  1  0
 22 51  1  0
 22 52  1  0
 22 53  1  0
 24 54  1  0
M  END
$$$$
