
     RDKit          3D

 35 36  0  0  1  0  0  0  0  0999 V2000
    5.8999    2.3241   -0.3260 O   0  0  0  0  0  0  0  0  0  0  0  0
    4.9156    1.3411   -0.2219 C   0  0  0  0  0  0  0  0  0  0  0  0
    5.3097   -0.0013   -0.2198 C   0  0  0  0  0  0  0  0  0  0  0  0
    4.3584   -1.0190   -0.1198 C   0  0  0  0  0  0  0  0  0  0  0  0
    2.9983   -0.7103   -0.0252 C   0  0  0  0  0  0  0  0  0  0  0  0
    2.0770   -1.7639    0.0734 O   0  0  0  0  0  0  0  0  0  0  0  0
    0.6902   -1.6018   -0.0123 C   0  0  0  0  0  0  0  0  0  0  0  0
    0.0751   -1.2761   -1.2346 C   0  0  0  0  0  0  0  0  0  0  0  0
    1.1895   -1.0999   -3.0261 I   0  0  0  0  0  0  0  0  0  0  0  0
   -1.3111   -1.0991   -1.2926 C   0  0  0  0  0  0  0  0  0  0  0  0
   -2.0990   -1.2378   -0.1386 C   0  0  0  0  0  0  0  0  0  0  0  0
   -3.5983   -1.0391   -0.1998 C   0  0  0  0  0  0  0  0  0  0  0  0
   -4.0860    0.3647    0.2555 C   0  0  1  0  0  0  0  0  0  0  0  0
   -3.6275    0.7028    1.6052 N   0  0  0  0  0  0  0  0  0  0  0  0
   -3.7445    1.4879   -0.6962 C   0  0  0  0  0  0  0  0  0  0  0  0
   -4.1664    2.7848   -0.4167 O   0  0  0  0  0  0  0  0  0  0  0  0
   -3.1033    1.2740   -1.7578 O   0  0  0  0  0  0  0  0  0  0  0  0
   -1.4822   -1.6073    1.0677 C   0  0  0  0  0  0  0  0  0  0  0  0
   -0.0973   -1.7857    1.1325 C   0  0  0  0  0  0  0  0  0  0  0  0
    0.7874   -2.3034    2.9813 I   0  0  0  0  0  0  0  0  0  0  0  0
    2.5984    0.6392   -0.0170 C   0  0  0  0  0  0  0  0  0  0  0  0
    3.5474    1.6635   -0.1184 C   0  0  0  0  0  0  0  0  0  0  0  0
    2.8450    3.6623   -0.1073 I   0  0  0  0  0  0  0  0  0  0  0  0
    5.6901    3.3134   -0.3342 H   0  0  0  0  0  0  0  0  0  0  0  0
    6.3590   -0.2567   -0.2966 H   0  0  0  0  0  0  0  0  0  0  0  0
    4.6788   -2.0531   -0.1205 H   0  0  0  0  0  0  0  0  0  0  0  0
   -1.7730   -0.8696   -2.2438 H   0  0  0  0  0  0  0  0  0  0  0  0
   -3.9658   -1.2362   -1.2310 H   0  0  0  0  0  0  0  0  0  0  0  0
   -4.0846   -1.8068    0.4414 H   0  0  0  0  0  0  0  0  0  0  0  0
   -5.1967    0.3176    0.2846 H   0  0  0  0  0  0  0  0  0  0  0  0
   -2.5894    0.8281    1.6081 H   0  0  0  0  0  0  0  0  0  0  0  0
   -3.8687   -0.0782    2.2576 H   0  0  0  0  0  0  0  0  0  0  0  0
   -4.7016    2.9948    0.4173 H   0  0  0  0  0  0  0  0  0  0  0  0
   -2.0767   -1.7534    1.9604 H   0  0  0  0  0  0  0  0  0  0  0  0
    1.5523    0.9005    0.0713 H   0  0  0  0  0  0  0  0  0  0  0  0
  1  2  1  0
  2  3  2  0
  2 22  1  0
  3  4  1  0
  4  5  2  0
  5 21  1  0
  5  6  1  0
  6  7  1  0
  7 19  1  0
  7  8  2  0
  8 10  1  0
  8  9  1  0
 10 11  2  0
 11 12  1  0
 11 18  1  0
 12 13  1  0
 13 15  1  0
 13 14  1  0
 15 16  1  0
 15 17  2  0
 18 19  2  0
 19 20  1  0
 21 22  2  0
 22 23  1  0
  1 24  1  0
  3 25  1  0
  4 26  1  0
 10 27  1  0
 12 28  1  0
 12 29  1  0
 13 30  1  1
 14 31  1  0
 14 32  1  0
 16 33  1  0
 18 34  1  0
 21 35  1  0
M  END
$$$$
