CC(C)CC=C
     RDKit          3D

 18 17  0  0  0  0  0  0  0  0999 V2000
   -1.5311   -0.0277   -1.4399 C   0  0  0  0  0  0  0  0  0  0  0  0
   -0.5559   -0.2703   -0.2817 C   0  0  0  0  0  0  0  0  0  0  0  0
   -1.3089   -0.2307    1.0565 C   0  0  0  0  0  0  0  0  0  0  0  0
    0.5838    0.7710   -0.3196 C   0  0  0  0  0  0  0  0  0  0  0  0
    1.6615    0.4834    0.6929 C   0  0  0  0  0  0  0  0  0  0  0  0
    2.4714   -0.5733    0.5795 C   0  0  0  0  0  0  0  0  0  0  0  0
   -2.3358   -0.7937   -1.4316 H   0  0  0  0  0  0  0  0  0  0  0  0
   -0.9980   -0.1011   -2.4119 H   0  0  0  0  0  0  0  0  0  0  0  0
   -1.9934    0.9797   -1.3593 H   0  0  0  0  0  0  0  0  0  0  0  0
   -0.1264   -1.2881   -0.4120 H   0  0  0  0  0  0  0  0  0  0  0  0
   -0.6238   -0.4762    1.8952 H   0  0  0  0  0  0  0  0  0  0  0  0
   -2.1282   -0.9809    1.0575 H   0  0  0  0  0  0  0  0  0  0  0  0
   -1.7451    0.7763    1.2316 H   0  0  0  0  0  0  0  0  0  0  0  0
    0.1677    1.7831   -0.1219 H   0  0  0  0  0  0  0  0  0  0  0  0
    1.0459    0.7937   -1.3311 H   0  0  0  0  0  0  0  0  0  0  0  0
    1.7975    1.1673    1.5255 H   0  0  0  0  0  0  0  0  0  0  0  0
    3.2441   -0.7468    1.3213 H   0  0  0  0  0  0  0  0  0  0  0  0
    2.3748   -1.2659   -0.2510 H   0  0  0  0  0  0  0  0  0  0  0  0
  1  2  1  0
  2  3  1  0
  2  4  1  0
  4  5  1  0
  5  6  2  3
  1  7  1  0
  1  8  1  0
  1  9  1  0
  2 10  1  0
  3 11  1  0
  3 12  1  0
  3 13  1  0
  4 14  1  0
  4 15  1  0
  5 16  1  0
  6 17  1  0
  6 18  1  0
M  END
$$$$
