CSc2c1nccnc1ncn2
     RDKit          3D

 18 19  0  0  0  0  0  0  0  0999 V2000
    2.7469   -1.1488    0.5033 C   0  0  0  0  0  0  0  0  0  0  0  0
    1.9902   -1.2763   -1.1464 S   0  0  0  0  0  0  0  0  0  0  0  0
    0.8922    0.1182   -0.8787 C   0  0  0  0  0  0  0  0  0  0  0  0
   -0.3880   -0.0577   -0.3422 C   0  0  0  0  0  0  0  0  0  0  0  0
   -0.8628   -1.2839    0.0053 N   0  0  0  0  0  0  0  0  0  0  0  0
   -2.1101   -1.4271    0.5275 C   0  0  0  0  0  0  0  0  0  0  0  0
   -2.9165   -0.2988    0.7102 C   0  0  0  0  0  0  0  0  0  0  0  0
   -2.4442    0.9284    0.3633 N   0  0  0  0  0  0  0  0  0  0  0  0
   -1.1986    1.0754   -0.1587 C   0  0  0  0  0  0  0  0  0  0  0  0
   -0.7353    2.3041   -0.5023 N   0  0  0  0  0  0  0  0  0  0  0  0
    0.5107    2.4533   -1.0251 C   0  0  0  0  0  0  0  0  0  0  0  0
    1.3107    1.3688   -1.2097 N   0  0  0  0  0  0  0  0  0  0  0  0
    3.2318   -0.1576    0.6246 H   0  0  0  0  0  0  0  0  0  0  0  0
    3.5155   -1.9411    0.6118 H   0  0  0  0  0  0  0  0  0  0  0  0
    1.9746   -1.2868    1.2888 H   0  0  0  0  0  0  0  0  0  0  0  0
   -2.4735   -2.4091    0.7992 H   0  0  0  0  0  0  0  0  0  0  0  0
   -3.9107   -0.3988    1.1247 H   0  0  0  0  0  0  0  0  0  0  0  0
    0.8671    3.4377   -1.2954 H   0  0  0  0  0  0  0  0  0  0  0  0
  1  2  1  0
  2  3  1  0
  3  4  2  0
  3 12  1  0
  4  9  1  0
  4  5  1  0
  5  6  2  0
  6  7  1  0
  7  8  2  0
  8  9  1  0
  9 10  2  0
 10 11  1  0
 11 12  2  0
  1 13  1  0
  1 14  1  0
  1 15  1  0
  6 16  1  0
  7 17  1  0
 11 18  1  0
M  END
$$$$
