O=C(c1ccc(N)cc1)CC
     RDKit          3D

 22 22  0  0  0  0  0  0  0  0999 V2000
    1.5958    1.5870    1.3286 O   0  0  0  0  0  0  0  0  0  0  0  0
    1.3742    0.6450    0.5175 C   0  0  0  0  0  0  0  0  0  0  0  0
   -0.0325    0.2940    0.1793 C   0  0  0  0  0  0  0  0  0  0  0  0
   -1.0962    0.8997    0.8759 C   0  0  0  0  0  0  0  0  0  0  0  0
   -2.4225    0.5814    0.5695 C   0  0  0  0  0  0  0  0  0  0  0  0
   -2.7117   -0.3456   -0.4388 C   0  0  0  0  0  0  0  0  0  0  0  0
   -4.0689   -0.6702   -0.7515 N   0  0  0  0  0  0  0  0  0  0  0  0
   -1.6621   -0.9516   -1.1397 C   0  0  0  0  0  0  0  0  0  0  0  0
   -0.3344   -0.6360   -0.8358 C   0  0  0  0  0  0  0  0  0  0  0  0
    2.5394   -0.0864   -0.1082 C   0  0  0  0  0  0  0  0  0  0  0  0
    3.8862    0.2870    0.5112 C   0  0  0  0  0  0  0  0  0  0  0  0
   -0.9051    1.6186    1.6628 H   0  0  0  0  0  0  0  0  0  0  0  0
   -3.2248    1.0577    1.1190 H   0  0  0  0  0  0  0  0  0  0  0  0
   -4.2943   -1.3603   -1.5024 H   0  0  0  0  0  0  0  0  0  0  0  0
   -4.8584   -0.2228   -0.2343 H   0  0  0  0  0  0  0  0  0  0  0  0
   -1.8725   -1.6683   -1.9237 H   0  0  0  0  0  0  0  0  0  0  0  0
    0.4481   -1.1192   -1.4048 H   0  0  0  0  0  0  0  0  0  0  0  0
    2.3923   -1.1807    0.0173 H   0  0  0  0  0  0  0  0  0  0  0  0
    2.5705    0.1450   -1.1944 H   0  0  0  0  0  0  0  0  0  0  0  0
    3.8879    0.0572    1.5982 H   0  0  0  0  0  0  0  0  0  0  0  0
    4.0951    1.3677    0.3605 H   0  0  0  0  0  0  0  0  0  0  0  0
    4.6939   -0.2991    0.0241 H   0  0  0  0  0  0  0  0  0  0  0  0
  1  2  2  0
  2 10  1  0
  2  3  1  0
  3  9  2  0
  3  4  1  0
  4  5  2  0
  5  6  1  0
  6  8  2  0
  6  7  1  0
  8  9  1  0
 10 11  1  0
  4 12  1  0
  5 13  1  0
  7 14  1  0
  7 15  1  0
  8 16  1  0
  9 17  1  0
 10 18  1  0
 10 19  1  0
 11 20  1  0
 11 21  1  0
 11 22  1  0
M  END
$$$$
