Cc(c(C)cc(C)c1C)c1C
     RDKit          3D

 27 27  0  0  0  0  0  0  0  0999 V2000
    2.2913    1.5580   -0.1514 C   0  0  0  0  0  0  0  0  0  0  0  0
    1.1455    0.5641   -0.1118 C   0  0  0  0  0  0  0  0  0  0  0  0
    1.3940   -0.8302   -0.1767 C   0  0  0  0  0  0  0  0  0  0  0  0
    2.7866   -1.3906   -0.3328 C   0  0  0  0  0  0  0  0  0  0  0  0
    0.3247   -1.7286   -0.1041 C   0  0  0  0  0  0  0  0  0  0  0  0
   -0.9920   -1.2863    0.0506 C   0  0  0  0  0  0  0  0  0  0  0  0
   -2.0906   -2.3186    0.1218 C   0  0  0  0  0  0  0  0  0  0  0  0
   -1.2579    0.0993    0.1648 C   0  0  0  0  0  0  0  0  0  0  0  0
   -2.6739    0.5840    0.4120 C   0  0  0  0  0  0  0  0  0  0  0  0
   -0.1953    1.0317   -0.0014 C   0  0  0  0  0  0  0  0  0  0  0  0
   -0.4895    2.5213    0.0091 C   0  0  0  0  0  0  0  0  0  0  0  0
    3.2914    1.0935   -0.0636 H   0  0  0  0  0  0  0  0  0  0  0  0
    2.2028    2.2681    0.6977 H   0  0  0  0  0  0  0  0  0  0  0  0
    2.2682    2.1185   -1.1091 H   0  0  0  0  0  0  0  0  0  0  0  0
    2.7787   -2.4931   -0.4688 H   0  0  0  0  0  0  0  0  0  0  0  0
    3.2750   -0.9510   -1.2279 H   0  0  0  0  0  0  0  0  0  0  0  0
    3.3863   -1.1664    0.5742 H   0  0  0  0  0  0  0  0  0  0  0  0
    0.5206   -2.7931   -0.1635 H   0  0  0  0  0  0  0  0  0  0  0  0
   -1.7373   -3.3188   -0.2086 H   0  0  0  0  0  0  0  0  0  0  0  0
   -2.4536   -2.4076    1.1671 H   0  0  0  0  0  0  0  0  0  0  0  0
   -2.9315   -2.0321   -0.5444 H   0  0  0  0  0  0  0  0  0  0  0  0
   -3.2913   -0.1691    0.9408 H   0  0  0  0  0  0  0  0  0  0  0  0
   -2.6811    1.4777    1.0697 H   0  0  0  0  0  0  0  0  0  0  0  0
   -3.1572    0.8316   -0.5561 H   0  0  0  0  0  0  0  0  0  0  0  0
    0.2583    3.1059   -0.5613 H   0  0  0  0  0  0  0  0  0  0  0  0
   -1.4590    2.7432   -0.4825 H   0  0  0  0  0  0  0  0  0  0  0  0
   -0.5135    2.8884    1.0563 H   0  0  0  0  0  0  0  0  0  0  0  0
  1  2  1  0
  2  3  2  0
  2 10  1  0
  3  4  1  0
  3  5  1  0
  5  6  2  0
  6  7  1  0
  6  8  1  0
  8  9  1  0
  8 10  2  0
 10 11  1  0
  1 12  1  0
  1 13  1  0
  1 14  1  0
  4 15  1  0
  4 16  1  0
  4 17  1  0
  5 18  1  0
  7 19  1  0
  7 20  1  0
  7 21  1  0
  9 22  1  0
  9 23  1  0
  9 24  1  0
 11 25  1  0
 11 26  1  0
 11 27  1  0
M  END
$$$$
