Clc1ccc(c2ccc(cc2Cl)Cl)cc1
     RDKit          3D

 22 23  0  0  0  0  0  0  0  0999 V2000
    5.2624   -0.0888   -0.6371 Cl  0  0  0  0  0  0  0  0  0  0  0  0
    3.5184   -0.0551   -0.4523 C   0  0  0  0  0  0  0  0  0  0  0  0
    2.9417   -0.3093    0.7962 C   0  0  0  0  0  0  0  0  0  0  0  0
    1.5517   -0.2835    0.9450 C   0  0  0  0  0  0  0  0  0  0  0  0
    0.7261    0.0058   -0.1548 C   0  0  0  0  0  0  0  0  0  0  0  0
   -0.7468    0.0167   -0.0078 C   0  0  0  0  0  0  0  0  0  0  0  0
   -1.5214   -0.8279   -0.8219 C   0  0  0  0  0  0  0  0  0  0  0  0
   -2.9126   -0.8520   -0.6984 C   0  0  0  0  0  0  0  0  0  0  0  0
   -3.5475   -0.0293    0.2349 C   0  0  0  0  0  0  0  0  0  0  0  0
   -2.7901    0.8243    1.0420 C   0  0  0  0  0  0  0  0  0  0  0  0
   -1.3948    0.8561    0.9265 C   0  0  0  0  0  0  0  0  0  0  0  0
   -0.5040    2.0047    1.9211 Cl  0  0  0  0  0  0  0  0  0  0  0  0
   -5.2948   -0.0603    0.3867 Cl  0  0  0  0  0  0  0  0  0  0  0  0
    1.3124    0.2476   -1.4086 C   0  0  0  0  0  0  0  0  0  0  0  0
    2.7027    0.2212   -1.5542 C   0  0  0  0  0  0  0  0  0  0  0  0
    3.5686   -0.5312    1.6505 H   0  0  0  0  0  0  0  0  0  0  0  0
    1.1190   -0.4989    1.9143 H   0  0  0  0  0  0  0  0  0  0  0  0
   -1.0456   -1.4790   -1.5452 H   0  0  0  0  0  0  0  0  0  0  0  0
   -3.4957   -1.5122   -1.3278 H   0  0  0  0  0  0  0  0  0  0  0  0
   -3.2875    1.4708    1.7541 H   0  0  0  0  0  0  0  0  0  0  0  0
    0.6932    0.4651   -2.2704 H   0  0  0  0  0  0  0  0  0  0  0  0
    3.1444    0.4150   -2.5234 H   0  0  0  0  0  0  0  0  0  0  0  0
  1  2  1  0
  2 15  2  0
  2  3  1  0
  3  4  2  0
  4  5  1  0
  5 14  2  0
  5  6  1  0
  6  7  2  0
  6 11  1  0
  7  8  1  0
  8  9  2  0
  9 10  1  0
  9 13  1  0
 10 11  2  0
 11 12  1  0
 14 15  1  0
  3 16  1  0
  4 17  1  0
  7 18  1  0
  8 19  1  0
 10 20  1  0
 14 21  1  0
 15 22  1  0
M  END
$$$$
