CN2C(NC(N1)=C(C2=O)NC1=O)=O
     RDKit          3D

 19 20  0  0  0  0  0  0  0  0999 V2000
    2.9155   -0.2323   -0.4894 C   0  0  0  0  0  0  0  0  0  0  0  0
    1.4878    0.0308   -0.2478 N   0  0  0  0  0  0  0  0  0  0  0  0
    1.0515    1.3434   -0.1580 C   0  0  0  0  0  0  0  0  0  0  0  0
   -0.2695    1.6273    0.0660 N   0  0  0  0  0  0  0  0  0  0  0  0
   -1.1367    0.5986    0.1974 C   0  0  0  0  0  0  0  0  0  0  0  0
   -2.4586    0.6714    0.4189 N   0  0  0  0  0  0  0  0  0  0  0  0
   -0.7436   -0.6922    0.1151 C   0  0  0  0  0  0  0  0  0  0  0  0
    0.5879   -1.0064   -0.1111 C   0  0  0  0  0  0  0  0  0  0  0  0
    0.9497   -2.2124   -0.1871 O   0  0  0  0  0  0  0  0  0  0  0  0
   -1.8046   -1.5001    0.2817 N   0  0  0  0  0  0  0  0  0  0  0  0
   -2.8309   -0.6318    0.4641 C   0  0  0  0  0  0  0  0  0  0  0  0
   -4.0190   -1.0016    0.6576 O   0  0  0  0  0  0  0  0  0  0  0  0
    1.8698    2.2963   -0.2822 O   0  0  0  0  0  0  0  0  0  0  0  0
    3.2239    0.2276   -1.4525 H   0  0  0  0  0  0  0  0  0  0  0  0
    3.1462   -1.3167   -0.5420 H   0  0  0  0  0  0  0  0  0  0  0  0
    3.5217    0.2045    0.3327 H   0  0  0  0  0  0  0  0  0  0  0  0
   -0.6040    2.6150    0.1346 H   0  0  0  0  0  0  0  0  0  0  0  0
   -3.0534    1.5227    0.5291 H   0  0  0  0  0  0  0  0  0  0  0  0
   -1.8337   -2.5441    0.2730 H   0  0  0  0  0  0  0  0  0  0  0  0
  1  2  1  0
  2  8  1  0
  2  3  1  0
  3  4  1  0
  3 13  2  0
  4  5  1  0
  5  7  2  0
  5  6  1  0
  6 11  1  0
  7  8  1  0
  7 10  1  0
  8  9  2  0
 10 11  1  0
 11 12  2  0
  1 14  1  0
  1 15  1  0
  1 16  1  0
  4 17  1  0
  6 18  1  0
 10 19  1  0
M  END
$$$$
