NC1=NC(NC=C1)=O
     RDKit          3D

 13 13  0  0  0  0  0  0  0  0999 V2000
    2.3230   -0.4746   -0.0457 N   0  0  0  0  0  0  0  0  0  0  0  0
    0.9108   -0.2687   -0.0074 C   0  0  0  0  0  0  0  0  0  0  0  0
    0.0771   -1.3284    0.1656 N   0  0  0  0  0  0  0  0  0  0  0  0
   -1.2710   -1.1618    0.2059 C   0  0  0  0  0  0  0  0  0  0  0  0
   -1.8086    0.0819    0.0722 N   0  0  0  0  0  0  0  0  0  0  0  0
   -1.0092    1.1678   -0.1025 C   0  0  0  0  0  0  0  0  0  0  0  0
    0.3761    1.0152   -0.1464 C   0  0  0  0  0  0  0  0  0  0  0  0
   -2.0199   -2.1610    0.3674 O   0  0  0  0  0  0  0  0  0  0  0  0
    2.9793    0.3271   -0.1778 H   0  0  0  0  0  0  0  0  0  0  0  0
    2.7172   -1.4358    0.0586 H   0  0  0  0  0  0  0  0  0  0  0  0
   -2.8454    0.2097    0.1033 H   0  0  0  0  0  0  0  0  0  0  0  0
   -1.4471    2.1524   -0.2079 H   0  0  0  0  0  0  0  0  0  0  0  0
    1.0176    1.8763   -0.2853 H   0  0  0  0  0  0  0  0  0  0  0  0
  1  2  1  0
  2  7  1  0
  2  3  2  0
  3  4  1  0
  4  5  1  0
  4  8  2  0
  5  6  1  0
  6  7  2  0
  1  9  1  0
  1 10  1  0
  5 11  1  0
  6 12  1  0
  7 13  1  0
M  END
$$$$
