NC(C(O)=O)C(O)C
     RDKit          3D

 17 16  0  0  1  0  0  0  0  0999 V2000
    0.9962    1.6561   -0.1837 N   0  0  0  0  0  0  0  0  0  0  0  0
    0.7860    0.2128   -0.3354 C   0  0  1  0  0  0  0  0  0  0  0  0
    1.3901   -0.5320    0.8321 C   0  0  0  0  0  0  0  0  0  0  0  0
    2.2978   -1.5667    0.6197 O   0  0  0  0  0  0  0  0  0  0  0  0
    1.0912   -0.2148    2.0139 O   0  0  0  0  0  0  0  0  0  0  0  0
   -0.7032   -0.1521   -0.5815 C   0  0  1  0  0  0  0  0  0  0  0  0
   -0.8015   -1.5325   -0.8248 O   0  0  0  0  0  0  0  0  0  0  0  0
   -1.6478    0.2336    0.5676 C   0  0  0  0  0  0  0  0  0  0  0  0
    0.5374    2.0011    0.6895 H   0  0  0  0  0  0  0  0  0  0  0  0
    0.5582    2.1535   -0.9928 H   0  0  0  0  0  0  0  0  0  0  0  0
    1.3377   -0.0991   -1.2497 H   0  0  0  0  0  0  0  0  0  0  0  0
    2.5627   -1.8559   -0.3141 H   0  0  0  0  0  0  0  0  0  0  0  0
   -1.0349    0.4009   -1.4919 H   0  0  0  0  0  0  0  0  0  0  0  0
   -1.6627   -1.6840   -1.2956 H   0  0  0  0  0  0  0  0  0  0  0  0
   -2.6905   -0.0324    0.2927 H   0  0  0  0  0  0  0  0  0  0  0  0
   -1.3926   -0.3142    1.4974 H   0  0  0  0  0  0  0  0  0  0  0  0
   -1.6242    1.3258    0.7568 H   0  0  0  0  0  0  0  0  0  0  0  0
  1  2  1  0
  2  6  1  0
  2  3  1  0
  3  4  1  0
  3  5  2  0
  6  8  1  0
  6  7  1  0
  1  9  1  0
  1 10  1  0
  2 11  1  6
  4 12  1  0
  6 13  1  6
  7 14  1  0
  8 15  1  0
  8 16  1  0
  8 17  1  0
M  END
$$$$
