ClC(Cl)(Cl)C(c2ccc(OC)cc2)c1ccc(OC)cc1
     RDKit          3D

 36 37  0  0  0  0  0  0  0  0999 V2000
   -2.0238   -3.3897    1.5507 Cl  0  0  0  0  0  0  0  0  0  0  0  0
   -0.3698   -2.7190    1.4648 C   0  0  0  0  0  0  0  0  0  0  0  0
    0.7501   -4.1107    1.4274 Cl  0  0  0  0  0  0  0  0  0  0  0  0
   -0.0382   -1.8403    2.9862 Cl  0  0  0  0  0  0  0  0  0  0  0  0
   -0.1819   -1.8666    0.1712 C   0  0  0  0  0  0  0  0  0  0  0  0
    1.1727   -1.1716    0.0977 C   0  0  0  0  0  0  0  0  0  0  0  0
    2.1934   -1.7162   -0.7033 C   0  0  0  0  0  0  0  0  0  0  0  0
    3.4411   -1.0934   -0.7899 C   0  0  0  0  0  0  0  0  0  0  0  0
    3.6984    0.0860   -0.0850 C   0  0  0  0  0  0  0  0  0  0  0  0
    4.9672    0.6720   -0.2052 O   0  0  0  0  0  0  0  0  0  0  0  0
    5.3653    1.8695    0.4543 C   0  0  0  0  0  0  0  0  0  0  0  0
    2.6831    0.6409    0.7145 C   0  0  0  0  0  0  0  0  0  0  0  0
    1.4344    0.0191    0.8026 C   0  0  0  0  0  0  0  0  0  0  0  0
   -1.3212   -0.9067   -0.1740 C   0  0  0  0  0  0  0  0  0  0  0  0
   -1.9331   -0.0741    0.7839 C   0  0  0  0  0  0  0  0  0  0  0  0
   -2.9601    0.8011    0.4189 C   0  0  0  0  0  0  0  0  0  0  0  0
   -3.3952    0.8701   -0.9162 C   0  0  0  0  0  0  0  0  0  0  0  0
   -4.4216    1.7317   -1.3307 O   0  0  0  0  0  0  0  0  0  0  0  0
   -5.1272    2.6158   -0.4658 C   0  0  0  0  0  0  0  0  0  0  0  0
   -2.7853    0.0541   -1.8724 C   0  0  0  0  0  0  0  0  0  0  0  0
   -1.7589   -0.8214   -1.5096 C   0  0  0  0  0  0  0  0  0  0  0  0
   -0.1944   -2.6307   -0.6394 H   0  0  0  0  0  0  0  0  0  0  0  0
    2.0280   -2.6297   -1.2609 H   0  0  0  0  0  0  0  0  0  0  0  0
    4.2138   -1.5306   -1.4096 H   0  0  0  0  0  0  0  0  0  0  0  0
    6.4151    2.1017    0.1818 H   0  0  0  0  0  0  0  0  0  0  0  0
    5.3045    1.7373    1.5553 H   0  0  0  0  0  0  0  0  0  0  0  0
    4.7195    2.7144    0.1343 H   0  0  0  0  0  0  0  0  0  0  0  0
    2.8476    1.5532    1.2714 H   0  0  0  0  0  0  0  0  0  0  0  0
    0.6771    0.4751    1.4231 H   0  0  0  0  0  0  0  0  0  0  0  0
   -1.6286   -0.0885    1.8167 H   0  0  0  0  0  0  0  0  0  0  0  0
   -3.4074    1.4216    1.1834 H   0  0  0  0  0  0  0  0  0  0  0  0
   -4.4242    3.3428   -0.0069 H   0  0  0  0  0  0  0  0  0  0  0  0
   -5.6511    2.0388    0.3252 H   0  0  0  0  0  0  0  0  0  0  0  0
   -5.8814    3.1752   -1.0561 H   0  0  0  0  0  0  0  0  0  0  0  0
   -3.1069    0.1007   -2.9052 H   0  0  0  0  0  0  0  0  0  0  0  0
   -1.3013   -1.4319   -2.2782 H   0  0  0  0  0  0  0  0  0  0  0  0
  1  2  1  0
  2  5  1  0
  2  4  1  0
  2  3  1  0
  5 14  1  0
  5  6  1  0
  6 13  1  0
  6  7  2  0
  7  8  1  0
  8  9  2  0
  9 12  1  0
  9 10  1  0
 10 11  1  0
 12 13  2  0
 14 21  1  0
 14 15  2  0
 15 16  1  0
 16 17  2  0
 17 20  1  0
 17 18  1  0
 18 19  1  0
 20 21  2  0
  5 22  1  0
  7 23  1  0
  8 24  1  0
 11 25  1  0
 11 26  1  0
 11 27  1  0
 12 28  1  0
 13 29  1  0
 15 30  1  0
 16 31  1  0
 19 32  1  0
 19 33  1  0
 19 34  1  0
 20 35  1  0
 21 36  1  0
M  END
$$$$
