COC(c1c(Cl)c(N)cc(Cl)c1)=O
     RDKit          3D

 20 20  0  0  0  0  0  0  0  0999 V2000
    3.8075   -0.7019    0.0143 C   0  0  0  0  0  0  0  0  0  0  0  0
    2.4025   -0.5660    0.1906 O   0  0  0  0  0  0  0  0  0  0  0  0
    1.6187    0.2761   -0.6045 C   0  0  0  0  0  0  0  0  0  0  0  0
    0.1572    0.3882   -0.3719 C   0  0  0  0  0  0  0  0  0  0  0  0
   -0.6135   -0.6763    0.1642 C   0  0  0  0  0  0  0  0  0  0  0  0
    0.1166   -2.2543    0.4846 Cl  0  0  0  0  0  0  0  0  0  0  0  0
   -1.9985   -0.4951    0.3891 C   0  0  0  0  0  0  0  0  0  0  0  0
   -2.8125   -1.5424    0.9354 N   0  0  0  0  0  0  0  0  0  0  0  0
   -2.5998    0.7290    0.0688 C   0  0  0  0  0  0  0  0  0  0  0  0
   -1.8471    1.7680   -0.4745 C   0  0  0  0  0  0  0  0  0  0  0  0
   -2.6184    3.2924   -0.8745 Cl  0  0  0  0  0  0  0  0  0  0  0  0
   -0.4807    1.5993   -0.6950 C   0  0  0  0  0  0  0  0  0  0  0  0
    2.1634    0.9752   -1.5035 O   0  0  0  0  0  0  0  0  0  0  0  0
    4.0274   -1.0819   -1.0058 H   0  0  0  0  0  0  0  0  0  0  0  0
    4.3064    0.2787    0.1655 H   0  0  0  0  0  0  0  0  0  0  0  0
    4.1999   -1.4239    0.7594 H   0  0  0  0  0  0  0  0  0  0  0  0
   -2.4202   -2.4675    1.2145 H   0  0  0  0  0  0  0  0  0  0  0  0
   -3.8363   -1.3953    1.0814 H   0  0  0  0  0  0  0  0  0  0  0  0
   -3.6600    0.8725    0.2381 H   0  0  0  0  0  0  0  0  0  0  0  0
    0.0873    2.4254   -1.1057 H   0  0  0  0  0  0  0  0  0  0  0  0
  1  2  1  0
  2  3  1  0
  3  4  1  0
  3 13  2  0
  4 12  2  0
  4  5  1  0
  5  7  2  0
  5  6  1  0
  7  9  1  0
  7  8  1  0
  9 10  2  0
 10 12  1  0
 10 11  1  0
  1 14  1  0
  1 15  1  0
  1 16  1  0
  8 17  1  0
  8 18  1  0
  9 19  1  0
 12 20  1  0
M  END
$$$$
