CC(C)(C)C(C)(O)CC
     RDKit          3D

 27 26  0  0  1  0  0  0  0  0999 V2000
   -0.7032   -0.4367    1.5855 C   0  0  0  0  0  0  0  0  0  0  0  0
   -0.9792   -0.1040    0.1010 C   0  0  0  0  0  0  0  0  0  0  0  0
   -1.8511   -1.2466   -0.4818 C   0  0  0  0  0  0  0  0  0  0  0  0
   -1.8533    1.1796    0.0684 C   0  0  0  0  0  0  0  0  0  0  0  0
    0.3639    0.0780   -0.7521 C   0  0  1  0  0  0  0  0  0  0  0  0
    1.0747   -1.2752   -1.0094 C   0  0  0  0  0  0  0  0  0  0  0  0
    0.0116    0.5533   -2.0356 O   0  0  0  0  0  0  0  0  0  0  0  0
    1.3907    1.0923   -0.1115 C   0  0  0  0  0  0  0  0  0  0  0  0
    2.4286    0.5145    0.8653 C   0  0  0  0  0  0  0  0  0  0  0  0
   -1.6550   -0.6404    2.1232 H   0  0  0  0  0  0  0  0  0  0  0  0
   -0.0701   -1.3407    1.6906 H   0  0  0  0  0  0  0  0  0  0  0  0
   -0.2207    0.4179    2.1035 H   0  0  0  0  0  0  0  0  0  0  0  0
   -2.8479   -1.2782    0.0101 H   0  0  0  0  0  0  0  0  0  0  0  0
   -2.0132   -1.1040   -1.5716 H   0  0  0  0  0  0  0  0  0  0  0  0
   -1.3819   -2.2394   -0.3157 H   0  0  0  0  0  0  0  0  0  0  0  0
   -2.7611    1.0513    0.6977 H   0  0  0  0  0  0  0  0  0  0  0  0
   -2.2059    1.4031   -0.9606 H   0  0  0  0  0  0  0  0  0  0  0  0
   -1.3151    2.0650    0.4588 H   0  0  0  0  0  0  0  0  0  0  0  0
    0.4679   -1.9282   -1.6709 H   0  0  0  0  0  0  0  0  0  0  0  0
    1.2848   -1.8240   -0.0696 H   0  0  0  0  0  0  0  0  0  0  0  0
    2.0354   -1.1073   -1.5422 H   0  0  0  0  0  0  0  0  0  0  0  0
   -0.1563    1.5307   -1.9861 H   0  0  0  0  0  0  0  0  0  0  0  0
    1.9740    1.5700   -0.9298 H   0  0  0  0  0  0  0  0  0  0  0  0
    0.8632    1.9212    0.3978 H   0  0  0  0  0  0  0  0  0  0  0  0
    3.1738   -0.1050    0.3242 H   0  0  0  0  0  0  0  0  0  0  0  0
    2.9783    1.3494    1.3491 H   0  0  0  0  0  0  0  0  0  0  0  0
    1.9670   -0.0967    1.6618 H   0  0  0  0  0  0  0  0  0  0  0  0
  1  2  1  0
  2  3  1  0
  2  4  1  0
  5  2  1  1
  5  6  1  0
  5  8  1  0
  5  7  1  0
  8  9  1  0
  1 10  1  0
  1 11  1  0
  1 12  1  0
  3 13  1  0
  3 14  1  0
  3 15  1  0
  4 16  1  0
  4 17  1  0
  4 18  1  0
  6 19  1  0
  6 20  1  0
  6 21  1  0
  7 22  1  0
  8 23  1  0
  8 24  1  0
  9 25  1  0
  9 26  1  0
  9 27  1  0
M  END
$$$$
