
     RDKit          3D

 39 40  0  0  0  0  0  0  0  0999 V2000
    5.5327   -0.8068    2.2552 N   0  0  0  0  0  0  0  0  0  0  0  0
    4.4763   -0.8297    1.2982 C   0  0  0  0  0  0  0  0  0  0  0  0
    3.6355    0.2281    1.1892 N   0  0  0  0  0  0  0  0  0  0  0  0
    2.6192    0.2238    0.2910 C   0  0  0  0  0  0  0  0  0  0  0  0
    2.3982   -0.8949   -0.5337 C   0  0  0  0  0  0  0  0  0  0  0  0
    1.2490   -0.9037   -1.5275 C   0  0  0  0  0  0  0  0  0  0  0  0
    0.0194   -0.1936   -1.0110 C   0  0  0  0  0  0  0  0  0  0  0  0
   -0.4287    0.9822   -1.6163 C   0  0  0  0  0  0  0  0  0  0  0  0
   -1.5608    1.6538   -1.1464 C   0  0  0  0  0  0  0  0  0  0  0  0
   -1.9127    2.8298   -1.8366 O   0  0  0  0  0  0  0  0  0  0  0  0
   -3.0127    3.6883   -1.5554 C   0  0  0  0  0  0  0  0  0  0  0  0
   -2.2770    1.1359   -0.0327 C   0  0  0  0  0  0  0  0  0  0  0  0
   -3.4124    1.8371    0.4161 O   0  0  0  0  0  0  0  0  0  0  0  0
   -4.2641    1.4940    1.5038 C   0  0  0  0  0  0  0  0  0  0  0  0
   -1.8242   -0.0634    0.5843 C   0  0  0  0  0  0  0  0  0  0  0  0
   -2.5150   -0.5916    1.6869 O   0  0  0  0  0  0  0  0  0  0  0  0
   -2.1544   -1.7766    2.3902 C   0  0  0  0  0  0  0  0  0  0  0  0
   -0.6808   -0.7120    0.0810 C   0  0  0  0  0  0  0  0  0  0  0  0
    3.3275   -1.9592   -0.4436 C   0  0  0  0  0  0  0  0  0  0  0  0
    3.2767   -3.0933   -1.3166 N   0  0  0  0  0  0  0  0  0  0  0  0
    4.3237   -1.9011    0.4801 N   0  0  0  0  0  0  0  0  0  0  0  0
    5.6599    0.0181    2.8826 H   0  0  0  0  0  0  0  0  0  0  0  0
    6.1883   -1.6152    2.3383 H   0  0  0  0  0  0  0  0  0  0  0  0
    1.9782    1.0933    0.2310 H   0  0  0  0  0  0  0  0  0  0  0  0
    0.9319   -1.9402   -1.7602 H   0  0  0  0  0  0  0  0  0  0  0  0
    1.6056   -0.4434   -2.4740 H   0  0  0  0  0  0  0  0  0  0  0  0
    0.1095    1.3906   -2.4633 H   0  0  0  0  0  0  0  0  0  0  0  0
   -2.9159    4.1172   -0.5359 H   0  0  0  0  0  0  0  0  0  0  0  0
   -3.0081    4.5253   -2.2831 H   0  0  0  0  0  0  0  0  0  0  0  0
   -3.9701    3.1377   -1.6690 H   0  0  0  0  0  0  0  0  0  0  0  0
   -3.6923    1.4920    2.4554 H   0  0  0  0  0  0  0  0  0  0  0  0
   -4.7451    0.5102    1.3213 H   0  0  0  0  0  0  0  0  0  0  0  0
   -5.0640    2.2580    1.5849 H   0  0  0  0  0  0  0  0  0  0  0  0
   -2.8792   -1.9427    3.2132 H   0  0  0  0  0  0  0  0  0  0  0  0
   -2.1875   -2.6516    1.7073 H   0  0  0  0  0  0  0  0  0  0  0  0
   -1.1398   -1.6676    2.8282 H   0  0  0  0  0  0  0  0  0  0  0  0
   -0.3202   -1.6248    0.5360 H   0  0  0  0  0  0  0  0  0  0  0  0
    3.9212   -3.8982   -1.1518 H   0  0  0  0  0  0  0  0  0  0  0  0
    2.7121   -3.1059   -2.1927 H   0  0  0  0  0  0  0  0  0  0  0  0
  1  2  1  0
  2  3  2  0
  2 21  1  0
  3  4  1  0
  4  5  2  0
  5  6  1  0
  5 19  1  0
  6  7  1  0
  7 18  1  0
  7  8  2  0
  8  9  1  0
  9 12  2  0
  9 10  1  0
 10 11  1  0
 12 15  1  0
 12 13  1  0
 13 14  1  0
 15 18  2  0
 15 16  1  0
 16 17  1  0
 19 20  1  0
 19 21  2  0
  1 22  1  0
  1 23  1  0
  4 24  1  0
  6 25  1  0
  6 26  1  0
  8 27  1  0
 11 28  1  0
 11 29  1  0
 11 30  1  0
 14 31  1  0
 14 32  1  0
 14 33  1  0
 17 34  1  0
 17 35  1  0
 17 36  1  0
 18 37  1  0
 20 38  1  0
 20 39  1  0
M  END
$$$$
