O=C(c1ccc(Cl)cc1)O
     RDKit          3D

 15 15  0  0  0  0  0  0  0  0999 V2000
    2.5102   -0.8821    1.4052 O   0  0  0  0  0  0  0  0  0  0  0  0
    1.9922    0.0658    0.7548 C   0  0  0  0  0  0  0  0  0  0  0  0
    0.6032   -0.0386    0.2561 C   0  0  0  0  0  0  0  0  0  0  0  0
    0.0276    1.0202   -0.4693 C   0  0  0  0  0  0  0  0  0  0  0  0
   -1.2851    0.9236   -0.9415 C   0  0  0  0  0  0  0  0  0  0  0  0
   -2.0368   -0.2290   -0.6955 C   0  0  0  0  0  0  0  0  0  0  0  0
   -3.6832   -0.3474   -1.2892 Cl  0  0  0  0  0  0  0  0  0  0  0  0
   -1.4743   -1.2870    0.0243 C   0  0  0  0  0  0  0  0  0  0  0  0
   -0.1621   -1.1947    0.4984 C   0  0  0  0  0  0  0  0  0  0  0  0
    2.7415    1.2137    0.5100 O   0  0  0  0  0  0  0  0  0  0  0  0
    0.5900    1.9229   -0.6724 H   0  0  0  0  0  0  0  0  0  0  0  0
   -1.7165    1.7456   -1.4986 H   0  0  0  0  0  0  0  0  0  0  0  0
   -2.0527   -2.1817    0.2173 H   0  0  0  0  0  0  0  0  0  0  0  0
    0.2523   -2.0270    1.0535 H   0  0  0  0  0  0  0  0  0  0  0  0
    3.6934    1.2955    0.8469 H   0  0  0  0  0  0  0  0  0  0  0  0
  1  2  2  0
  2  3  1  0
  2 10  1  0
  3  9  2  0
  3  4  1  0
  4  5  2  0
  5  6  1  0
  6  8  2  0
  6  7  1  0
  8  9  1  0
  4 11  1  0
  5 12  1  0
  8 13  1  0
  9 14  1  0
 10 15  1  0
M  END
$$$$
