CCBr
     RDKit          3D

  8  7  0  0  0  0  0  0  0  0999 V2000
   -0.7865    0.1469    0.0481 C   0  0  0  0  0  0  0  0  0  0  0  0
    0.6620   -0.3065   -0.0422 C   0  0  0  0  0  0  0  0  0  0  0  0
    1.8429    1.2283   -0.0978 Br  0  0  0  0  0  0  0  0  0  0  0  0
   -0.9410    0.7459    0.9704 H   0  0  0  0  0  0  0  0  0  0  0  0
   -1.0484    0.7632   -0.8378 H   0  0  0  0  0  0  0  0  0  0  0  0
   -1.4542   -0.7397    0.0793 H   0  0  0  0  0  0  0  0  0  0  0  0
    0.9162   -0.9277    0.8423 H   0  0  0  0  0  0  0  0  0  0  0  0
    0.8090   -0.9105   -0.9623 H   0  0  0  0  0  0  0  0  0  0  0  0
  1  2  1  0
  2  3  1  0
  1  4  1  0
  1  5  1  0
  1  6  1  0
  2  7  1  0
  2  8  1  0
M  END
$$$$
