C(Br)(Br)
     RDKit          3D

  5  4  0  0  0  0  0  0  0  0999 V2000
   -0.0013   -0.1901    0.0085 C   0  0  0  0  0  0  0  0  0  0  0  0
    1.5849    0.9147   -0.0322 Br  0  0  0  0  0  0  0  0  0  0  0  0
   -1.5723    0.9353   -0.0504 Br  0  0  0  0  0  0  0  0  0  0  0  0
   -0.0007   -0.8704   -0.8678 H   0  0  0  0  0  0  0  0  0  0  0  0
   -0.0106   -0.7895    0.9420 H   0  0  0  0  0  0  0  0  0  0  0  0
  1  2  1  0
  1  3  1  0
  1  4  1  0
  1  5  1  0
M  END
$$$$
