CCI
     RDKit          3D

  8  7  0  0  0  0  0  0  0  0999 V2000
   -0.7988    0.1440   -0.0567 C   0  0  0  0  0  0  0  0  0  0  0  0
    0.6367   -0.3356    0.0868 C   0  0  0  0  0  0  0  0  0  0  0  0
    1.9939    1.2947   -0.1702 I   0  0  0  0  0  0  0  0  0  0  0  0
   -0.9552    0.5784   -1.0665 H   0  0  0  0  0  0  0  0  0  0  0  0
   -1.0210    0.9136    0.7123 H   0  0  0  0  0  0  0  0  0  0  0  0
   -1.4939   -0.7112    0.0787 H   0  0  0  0  0  0  0  0  0  0  0  0
    0.7863   -0.7747    1.0956 H   0  0  0  0  0  0  0  0  0  0  0  0
    0.8520   -1.1092   -0.6801 H   0  0  0  0  0  0  0  0  0  0  0  0
  1  2  1  0
  2  3  1  0
  1  4  1  0
  1  5  1  0
  1  6  1  0
  2  7  1  0
  2  8  1  0
M  END
$$$$
