C(Br)(Br)Br
     RDKit          3D

  5  4  0  0  0  0  0  0  0  0999 V2000
   -0.0042    0.0000    0.1648 C   0  0  0  0  0  0  0  0  0  0  0  0
   -1.2745   -1.2907   -0.5123 Br  0  0  0  0  0  0  0  0  0  0  0  0
   -0.4616    1.7600   -0.4920 Br  0  0  0  0  0  0  0  0  0  0  0  0
    1.7731   -0.4696   -0.4342 Br  0  0  0  0  0  0  0  0  0  0  0  0
   -0.0327    0.0002    1.2738 H   0  0  0  0  0  0  0  0  0  0  0  0
  1  2  1  0
  1  3  1  0
  1  4  1  0
  1  5  1  0
M  END
$$$$
