BrC(Cl)Cl
     RDKit          3D

  5  4  0  0  0  0  0  0  0  0999 V2000
    1.7854   -0.4084   -0.3356 Br  0  0  0  0  0  0  0  0  0  0  0  0
   -0.0406    0.0121    0.1408 C   0  0  0  0  0  0  0  0  0  0  0  0
   -0.4874    1.5858   -0.5558 Cl  0  0  0  0  0  0  0  0  0  0  0  0
   -1.1238   -1.2464   -0.4949 Cl  0  0  0  0  0  0  0  0  0  0  0  0
   -0.1337    0.0568    1.2454 H   0  0  0  0  0  0  0  0  0  0  0  0
  1  2  1  0
  2  4  1  0
  2  3  1  0
  2  5  1  0
M  END
$$$$
