CC(Br)C
     RDKit          3D

 11 10  0  0  0  0  0  0  0  0999 V2000
    1.1800   -0.2176    0.4794 C   0  0  0  0  0  0  0  0  0  0  0  0
    0.0939    0.4461   -0.3643 C   0  0  0  0  0  0  0  0  0  0  0  0
   -0.1572    2.2815    0.2163 Br  0  0  0  0  0  0  0  0  0  0  0  0
   -1.2267   -0.3135   -0.2582 C   0  0  0  0  0  0  0  0  0  0  0  0
    1.3491   -1.2605    0.1360 H   0  0  0  0  0  0  0  0  0  0  0  0
    0.8866   -0.2314    1.5510 H   0  0  0  0  0  0  0  0  0  0  0  0
    2.1325    0.3439    0.3759 H   0  0  0  0  0  0  0  0  0  0  0  0
    0.4190    0.4596   -1.4269 H   0  0  0  0  0  0  0  0  0  0  0  0
   -1.9960    0.1795   -0.8894 H   0  0  0  0  0  0  0  0  0  0  0  0
   -1.0983   -1.3580   -0.6140 H   0  0  0  0  0  0  0  0  0  0  0  0
   -1.5830   -0.3297    0.7941 H   0  0  0  0  0  0  0  0  0  0  0  0
  1  2  1  0
  2  4  1  0
  2  3  1  0
  1  5  1  0
  1  6  1  0
  1  7  1  0
  2  8  1  0
  4  9  1  0
  4 10  1  0
  4 11  1  0
M  END
$$$$
