C=C(Cl)Cl
     RDKit          3D

  6  5  0  0  0  0  0  0  0  0999 V2000
   -0.7696    0.0010    0.1159 C   0  0  0  0  0  0  0  0  0  0  0  0
    0.5486   -0.0007   -0.0826 C   0  0  0  0  0  0  0  0  0  0  0  0
    1.5258   -1.3536    0.4640 Cl  0  0  0  0  0  0  0  0  0  0  0  0
    1.3248    1.3500   -0.8932 Cl  0  0  0  0  0  0  0  0  0  0  0  0
   -1.3768    0.8353   -0.2206 H   0  0  0  0  0  0  0  0  0  0  0  0
   -1.2528   -0.8320    0.6164 H   0  0  0  0  0  0  0  0  0  0  0  0
  1  2  2  3
  2  3  1  0
  2  4  1  0
  1  5  1  0
  1  6  1  0
M  END
$$$$
