CC(Cl)Cl
     RDKit          3D

  8  7  0  0  0  0  0  0  0  0999 V2000
   -0.8168   -0.0755    0.0456 C   0  0  0  0  0  0  0  0  0  0  0  0
    0.7007    0.0359    0.0982 C   0  0  0  0  0  0  0  0  0  0  0  0
    1.4415   -1.1633   -0.9911 Cl  0  0  0  0  0  0  0  0  0  0  0  0
    1.2129    1.6692   -0.3951 Cl  0  0  0  0  0  0  0  0  0  0  0  0
   -1.1329   -1.0920    0.3622 H   0  0  0  0  0  0  0  0  0  0  0  0
   -1.2748    0.6675    0.7324 H   0  0  0  0  0  0  0  0  0  0  0  0
   -1.1823    0.1122   -0.9866 H   0  0  0  0  0  0  0  0  0  0  0  0
    1.0516   -0.1538    1.1345 H   0  0  0  0  0  0  0  0  0  0  0  0
  1  2  1  0
  2  4  1  0
  2  3  1  0
  1  5  1  0
  1  6  1  0
  1  7  1  0
  2  8  1  0
M  END
$$$$
