CC(I)C
     RDKit          3D

 11 10  0  0  0  0  0  0  0  0999 V2000
   -1.2653   -0.2642   -0.0846 C   0  0  0  0  0  0  0  0  0  0  0  0
    0.0139    0.5692   -0.0683 C   0  0  0  0  0  0  0  0  0  0  0  0
    0.0290    1.8402    1.6555 I   0  0  0  0  0  0  0  0  0  0  0  0
    1.2528   -0.3231   -0.0632 C   0  0  0  0  0  0  0  0  0  0  0  0
   -2.1503    0.4063   -0.1016 H   0  0  0  0  0  0  0  0  0  0  0  0
   -1.3209   -0.9086    0.8187 H   0  0  0  0  0  0  0  0  0  0  0  0
   -1.2940   -0.9059   -0.9909 H   0  0  0  0  0  0  0  0  0  0  0  0
    0.0367    1.2158   -0.9720 H   0  0  0  0  0  0  0  0  0  0  0  0
    1.2669   -0.9658   -0.9692 H   0  0  0  0  0  0  0  0  0  0  0  0
    1.2629   -0.9690    0.8406 H   0  0  0  0  0  0  0  0  0  0  0  0
    2.1683    0.3053   -0.0650 H   0  0  0  0  0  0  0  0  0  0  0  0
  1  2  1  0
  2  4  1  0
  2  3  1  0
  1  5  1  0
  1  6  1  0
  1  7  1  0
  2  8  1  0
  4  9  1  0
  4 10  1  0
  4 11  1  0
M  END
$$$$
