CCC(C)(O)C
     RDKit          3D

 18 17  0  0  0  0  0  0  0  0999 V2000
    2.0704    0.1503    0.1511 C   0  0  0  0  0  0  0  0  0  0  0  0
    0.8467   -0.6100   -0.3684 C   0  0  0  0  0  0  0  0  0  0  0  0
   -0.5118   -0.1304    0.2142 C   0  0  0  0  0  0  0  0  0  0  0  0
   -0.8217    1.3297   -0.1896 C   0  0  0  0  0  0  0  0  0  0  0  0
   -0.5194   -0.2705    1.6165 O   0  0  0  0  0  0  0  0  0  0  0  0
   -1.6252   -1.0326   -0.3432 C   0  0  0  0  0  0  0  0  0  0  0  0
    2.9862   -0.2781   -0.3081 H   0  0  0  0  0  0  0  0  0  0  0  0
    2.1636    0.0498    1.2520 H   0  0  0  0  0  0  0  0  0  0  0  0
    2.0229    1.2227   -0.1271 H   0  0  0  0  0  0  0  0  0  0  0  0
    0.9892   -1.6858   -0.1235 H   0  0  0  0  0  0  0  0  0  0  0  0
    0.8278   -0.5242   -1.4774 H   0  0  0  0  0  0  0  0  0  0  0  0
   -0.7925    1.4451   -1.2945 H   0  0  0  0  0  0  0  0  0  0  0  0
   -0.0935    2.0367    0.2584 H   0  0  0  0  0  0  0  0  0  0  0  0
   -1.8317    1.6223    0.1699 H   0  0  0  0  0  0  0  0  0  0  0  0
    0.0177    0.4647    2.0111 H   0  0  0  0  0  0  0  0  0  0  0  0
   -1.4455   -2.0919   -0.0591 H   0  0  0  0  0  0  0  0  0  0  0  0
   -2.6122   -0.7314    0.0698 H   0  0  0  0  0  0  0  0  0  0  0  0
   -1.6709   -0.9666   -1.4521 H   0  0  0  0  0  0  0  0  0  0  0  0
  1  2  1  0
  2  3  1  0
  3  4  1  0
  3  6  1  0
  3  5  1  0
  1  7  1  0
  1  8  1  0
  1  9  1  0
  2 10  1  0
  2 11  1  0
  4 12  1  0
  4 13  1  0
  4 14  1  0
  5 15  1  0
  6 16  1  0
  6 17  1  0
  6 18  1  0
M  END
$$$$
