C(Cl)(Cl)C(Cl)(Cl)Cl
     RDKit          3D

  8  7  0  0  0  0  0  0  0  0999 V2000
    0.7777    0.1630    0.0772 C   0  0  0  0  0  0  0  0  0  0  0  0
    1.7021   -1.3653    0.1516 Cl  0  0  0  0  0  0  0  0  0  0  0  0
    1.0502    1.0586    1.6001 Cl  0  0  0  0  0  0  0  0  0  0  0  0
   -0.7206   -0.0864   -0.1797 C   0  0  0  0  0  0  0  0  0  0  0  0
   -1.5969    1.4646   -0.2898 Cl  0  0  0  0  0  0  0  0  0  0  0  0
   -0.9495   -0.9430   -1.7286 Cl  0  0  0  0  0  0  0  0  0  0  0  0
   -1.4564   -1.0629    1.1231 Cl  0  0  0  0  0  0  0  0  0  0  0  0
    1.1934    0.7715   -0.7539 H   0  0  0  0  0  0  0  0  0  0  0  0
  1  4  1  0
  1  2  1  0
  1  3  1  0
  4  5  1  0
  4  6  1  0
  4  7  1  0
  1  8  1  0
M  END
$$$$
