ClC(F)(F)C(Cl)(Cl)F
     RDKit          3D

  8  7  0  0  0  0  0  0  0  0999 V2000
    0.7350   -1.3238    1.5678 Cl  0  0  0  0  0  0  0  0  0  0  0  0
    0.7362   -0.2205    0.1639 C   0  0  0  0  0  0  0  0  0  0  0  0
    1.2480   -0.8931   -0.9321 F   0  0  0  0  0  0  0  0  0  0  0  0
    1.5610    0.8517    0.4551 F   0  0  0  0  0  0  0  0  0  0  0  0
   -0.6798    0.2841   -0.1409 C   0  0  0  0  0  0  0  0  0  0  0  0
   -0.6417    1.4450   -1.4947 Cl  0  0  0  0  0  0  0  0  0  0  0  0
   -1.7590   -1.0656   -0.5903 Cl  0  0  0  0  0  0  0  0  0  0  0  0
   -1.1997    0.9222    0.9712 F   0  0  0  0  0  0  0  0  0  0  0  0
  1  2  1  0
  2  5  1  0
  2  4  1  0
  2  3  1  0
  5  8  1  0
  5  7  1  0
  5  6  1  0
M  END
$$$$
