ClC(F)(F)C(F)(F)Cl
     RDKit          3D

  8  7  0  0  0  0  0  0  0  0999 V2000
   -1.4287    1.5154    0.4725 Cl  0  0  0  0  0  0  0  0  0  0  0  0
   -0.7640   -0.0498   -0.0715 C   0  0  0  0  0  0  0  0  0  0  0  0
   -1.3386   -1.0570    0.6827 F   0  0  0  0  0  0  0  0  0  0  0  0
   -1.0976   -0.2436   -1.4003 F   0  0  0  0  0  0  0  0  0  0  0  0
    0.7572   -0.0931    0.0961 C   0  0  0  0  0  0  0  0  0  0  0  0
    1.2249   -1.3423   -0.2702 F   0  0  0  0  0  0  0  0  0  0  0  0
    1.0926    0.1372    1.4186 F   0  0  0  0  0  0  0  0  0  0  0  0
    1.5543    1.1333   -0.9278 Cl  0  0  0  0  0  0  0  0  0  0  0  0
  1  2  1  0
  2  5  1  0
  2  4  1  0
  2  3  1  0
  5  6  1  0
  5  7  1  0
  5  8  1  0
M  END
$$$$
