O=C(CC(CC2)C1(C)C)C12C
     RDKit          3D

 27 28  0  0  1  0  0  0  0  0999 V2000
   -2.4516    0.0943   -1.5699 O   0  0  0  0  0  0  0  0  0  0  0  0
   -1.3963    0.3490   -1.0105 C   0  0  0  0  0  0  0  0  0  0  0  0
   -0.5668    1.5732   -1.2468 C   0  0  0  0  0  0  0  0  0  0  0  0
    0.5292    1.3517   -0.1672 C   0  0  1  0  0  0  0  0  0  0  0  0
   -0.1507    1.6085    1.2062 C   0  0  0  0  0  0  0  0  0  0  0  0
   -1.0526    0.3618    1.3862 C   0  0  0  0  0  0  0  0  0  0  0  0
    0.7306   -0.1829   -0.1653 C   0  0  0  0  0  0  0  0  0  0  0  0
    1.2620   -0.7450   -1.5204 C   0  0  0  0  0  0  0  0  0  0  0  0
    1.7101   -0.6885    0.9362 C   0  0  0  0  0  0  0  0  0  0  0  0
   -0.7661   -0.4523    0.1015 C   0  0  2  0  0  0  0  0  0  0  0  0
   -1.1957   -1.9226    0.1637 C   0  0  0  0  0  0  0  0  0  0  0  0
   -1.1538    2.5022   -1.0807 H   0  0  0  0  0  0  0  0  0  0  0  0
   -0.1411    1.5825   -2.2722 H   0  0  0  0  0  0  0  0  0  0  0  0
    1.4516    1.9487   -0.3325 H   0  0  0  0  0  0  0  0  0  0  0  0
    0.6031    1.6863    2.0183 H   0  0  0  0  0  0  0  0  0  0  0  0
   -0.7493    2.5457    1.2090 H   0  0  0  0  0  0  0  0  0  0  0  0
   -2.1258    0.6481    1.4614 H   0  0  0  0  0  0  0  0  0  0  0  0
   -0.7810   -0.2037    2.3033 H   0  0  0  0  0  0  0  0  0  0  0  0
    1.4269   -1.8411   -1.4460 H   0  0  0  0  0  0  0  0  0  0  0  0
    2.2318   -0.2651   -1.7722 H   0  0  0  0  0  0  0  0  0  0  0  0
    0.5737   -0.5928   -2.3752 H   0  0  0  0  0  0  0  0  0  0  0  0
    1.4368   -0.4023    1.9682 H   0  0  0  0  0  0  0  0  0  0  0  0
    1.7672   -1.7976    0.9188 H   0  0  0  0  0  0  0  0  0  0  0  0
    2.7280   -0.2876    0.7428 H   0  0  0  0  0  0  0  0  0  0  0  0
   -0.9810   -2.4313   -0.7995 H   0  0  0  0  0  0  0  0  0  0  0  0
   -2.2856   -1.9903    0.3659 H   0  0  0  0  0  0  0  0  0  0  0  0
   -0.6537   -2.4489    0.9770 H   0  0  0  0  0  0  0  0  0  0  0  0
  1  2  2  0
  2  3  1  0
  2 10  1  0
  3  4  1  0
  4  5  1  0
  4  7  1  0
  5  6  1  0
  6 10  1  0
  7  9  1  0
  7  8  1  0
  7 10  1  0
 10 11  1  1
  3 12  1  0
  3 13  1  0
  4 14  1  6
  5 15  1  0
  5 16  1  0
  6 17  1  0
  6 18  1  0
  8 19  1  0
  8 20  1  0
  8 21  1  0
  9 22  1  0
  9 23  1  0
  9 24  1  0
 11 25  1  0
 11 26  1  0
 11 27  1  0
M  END
$$$$
