OC(C(C)Oc1ccccc1Cl)=O
     RDKit          3D

 22 22  0  0  1  0  0  0  0  0999 V2000
   -1.8547    1.8209   -1.1143 O   0  0  0  0  0  0  0  0  0  0  0  0
   -1.8645    1.4012    0.2135 C   0  0  0  0  0  0  0  0  0  0  0  0
   -1.7403   -0.0573    0.5623 C   0  0  1  0  0  0  0  0  0  0  0  0
   -3.0701   -0.7618    0.3108 C   0  0  0  0  0  0  0  0  0  0  0  0
   -0.7282   -0.6785   -0.2326 O   0  0  0  0  0  0  0  0  0  0  0  0
    0.6512   -0.4222   -0.1457 C   0  0  0  0  0  0  0  0  0  0  0  0
    1.2000    0.4316    0.8330 C   0  0  0  0  0  0  0  0  0  0  0  0
    2.5790    0.6560    0.8801 C   0  0  0  0  0  0  0  0  0  0  0  0
    3.4226    0.0335   -0.0418 C   0  0  0  0  0  0  0  0  0  0  0  0
    2.8895   -0.8162   -1.0133 C   0  0  0  0  0  0  0  0  0  0  0  0
    1.5097   -1.0456   -1.0667 C   0  0  0  0  0  0  0  0  0  0  0  0
    0.8648   -2.1170   -2.3010 Cl  0  0  0  0  0  0  0  0  0  0  0  0
   -2.0119    2.2532    1.1288 O   0  0  0  0  0  0  0  0  0  0  0  0
   -1.7559    1.1591   -1.8747 H   0  0  0  0  0  0  0  0  0  0  0  0
   -1.4915   -0.1767    1.6401 H   0  0  0  0  0  0  0  0  0  0  0  0
   -3.8715   -0.3051    0.9305 H   0  0  0  0  0  0  0  0  0  0  0  0
   -2.9826   -1.8349    0.5837 H   0  0  0  0  0  0  0  0  0  0  0  0
   -3.3532   -0.6904   -0.7615 H   0  0  0  0  0  0  0  0  0  0  0  0
    0.5740    0.9244    1.5629 H   0  0  0  0  0  0  0  0  0  0  0  0
    2.9942    1.3129    1.6336 H   0  0  0  0  0  0  0  0  0  0  0  0
    4.4900    0.2089   -0.0029 H   0  0  0  0  0  0  0  0  0  0  0  0
    3.5493   -1.2962   -1.7249 H   0  0  0  0  0  0  0  0  0  0  0  0
  1  2  1  0
  2  3  1  0
  2 13  2  0
  3  4  1  0
  3  5  1  0
  5  6  1  0
  6  7  2  0
  6 11  1  0
  7  8  1  0
  8  9  2  0
  9 10  1  0
 10 11  2  0
 11 12  1  0
  1 14  1  0
  3 15  1  1
  4 16  1  0
  4 17  1  0
  4 18  1  0
  7 19  1  0
  8 20  1  0
  9 21  1  0
 10 22  1  0
M  END
$$$$
