O=C(N1)NC(C(C(C)C)(CC=C)C1=O)=O
     RDKit          3D

 29 29  0  0  0  0  0  0  0  0999 V2000
   -3.3083    2.8425   -1.1344 O   0  0  0  0  0  0  0  0  0  0  0  0
   -2.2827    2.2871   -0.6593 C   0  0  0  0  0  0  0  0  0  0  0  0
   -1.0883    2.2033   -1.4323 N   0  0  0  0  0  0  0  0  0  0  0  0
   -2.2935    1.7770    0.6721 N   0  0  0  0  0  0  0  0  0  0  0  0
   -1.1536    1.0790    1.1877 C   0  0  0  0  0  0  0  0  0  0  0  0
   -0.0819    0.5294    0.2368 C   0  0  0  0  0  0  0  0  0  0  0  0
   -0.6371   -0.8271   -0.3549 C   0  0  0  0  0  0  0  0  0  0  0  0
    0.1119   -1.3638   -1.5931 C   0  0  0  0  0  0  0  0  0  0  0  0
   -0.7603   -1.9487    0.6935 C   0  0  0  0  0  0  0  0  0  0  0  0
    1.2592    0.3727    1.0424 C   0  0  0  0  0  0  0  0  0  0  0  0
    2.4048   -0.2768    0.2995 C   0  0  0  0  0  0  0  0  0  0  0  0
    3.0158   -1.3733    0.7609 C   0  0  0  0  0  0  0  0  0  0  0  0
    0.0676    1.5574   -0.8895 C   0  0  0  0  0  0  0  0  0  0  0  0
    1.1954    1.8277   -1.3817 O   0  0  0  0  0  0  0  0  0  0  0  0
   -1.0970    0.8500    2.4272 O   0  0  0  0  0  0  0  0  0  0  0  0
   -1.0239    2.7080   -2.3449 H   0  0  0  0  0  0  0  0  0  0  0  0
   -3.1146    1.9619    1.2914 H   0  0  0  0  0  0  0  0  0  0  0  0
   -1.6733   -0.6270   -0.7123 H   0  0  0  0  0  0  0  0  0  0  0  0
    1.0981   -1.7914   -1.3306 H   0  0  0  0  0  0  0  0  0  0  0  0
   -0.4822   -2.1792   -2.0588 H   0  0  0  0  0  0  0  0  0  0  0  0
    0.2440   -0.5802   -2.3662 H   0  0  0  0  0  0  0  0  0  0  0  0
   -1.3657   -1.6192    1.5621 H   0  0  0  0  0  0  0  0  0  0  0  0
    0.2375   -2.2758    1.0499 H   0  0  0  0  0  0  0  0  0  0  0  0
   -1.2717   -2.8289    0.2484 H   0  0  0  0  0  0  0  0  0  0  0  0
    1.0708   -0.1976    1.9784 H   0  0  0  0  0  0  0  0  0  0  0  0
    1.6013    1.3802    1.3654 H   0  0  0  0  0  0  0  0  0  0  0  0
    2.7820    0.1670   -0.6141 H   0  0  0  0  0  0  0  0  0  0  0  0
    3.8462   -1.8026    0.2099 H   0  0  0  0  0  0  0  0  0  0  0  0
    2.6993   -1.8517    1.6825 H   0  0  0  0  0  0  0  0  0  0  0  0
  1  2  2  0
  2  3  1  0
  2  4  1  0
  3 13  1  0
  4  5  1  0
  5  6  1  0
  5 15  2  0
  6 10  1  0
  6  7  1  0
  6 13  1  0
  7  9  1  0
  7  8  1  0
 10 11  1  0
 11 12  2  3
 13 14  2  0
  3 16  1  0
  4 17  1  0
  7 18  1  0
  8 19  1  0
  8 20  1  0
  8 21  1  0
  9 22  1  0
  9 23  1  0
  9 24  1  0
 10 25  1  0
 10 26  1  0
 11 27  1  0
 12 28  1  0
 12 29  1  0
M  END
$$$$
