BrC(CC)(CC)C(NC(N)=O)=O
     RDKit          3D

 25 24  0  0  0  0  0  0  0  0999 V2000
   -1.8986   -0.6178   -2.2835 Br  0  0  0  0  0  0  0  0  0  0  0  0
   -0.8069   -0.3642   -0.6683 C   0  0  0  0  0  0  0  0  0  0  0  0
   -0.8658   -1.6694    0.1735 C   0  0  0  0  0  0  0  0  0  0  0  0
   -2.2590   -2.0396    0.6956 C   0  0  0  0  0  0  0  0  0  0  0  0
   -1.3712    0.8459    0.1278 C   0  0  0  0  0  0  0  0  0  0  0  0
   -1.1554    2.2002   -0.5575 C   0  0  0  0  0  0  0  0  0  0  0  0
    0.6450   -0.1210   -1.0604 C   0  0  0  0  0  0  0  0  0  0  0  0
    1.6369    0.1488   -0.0514 N   0  0  0  0  0  0  0  0  0  0  0  0
    3.0273    0.3757   -0.3311 C   0  0  0  0  0  0  0  0  0  0  0  0
    3.9305    0.6528    0.7385 N   0  0  0  0  0  0  0  0  0  0  0  0
    3.4646    0.3327   -1.5123 O   0  0  0  0  0  0  0  0  0  0  0  0
    0.9788   -0.1529   -2.2765 O   0  0  0  0  0  0  0  0  0  0  0  0
   -0.4935   -2.5143   -0.4469 H   0  0  0  0  0  0  0  0  0  0  0  0
   -0.1909   -1.5901    1.0529 H   0  0  0  0  0  0  0  0  0  0  0  0
   -2.9969   -2.1060   -0.1294 H   0  0  0  0  0  0  0  0  0  0  0  0
   -2.2100   -3.0312    1.1931 H   0  0  0  0  0  0  0  0  0  0  0  0
   -2.6070   -1.3019    1.4479 H   0  0  0  0  0  0  0  0  0  0  0  0
   -2.4654    0.7163    0.2692 H   0  0  0  0  0  0  0  0  0  0  0  0
   -0.9136    0.8874    1.1398 H   0  0  0  0  0  0  0  0  0  0  0  0
   -1.5904    2.2015   -1.5783 H   0  0  0  0  0  0  0  0  0  0  0  0
   -1.6546    2.9955    0.0352 H   0  0  0  0  0  0  0  0  0  0  0  0
   -0.0744    2.4451   -0.6178 H   0  0  0  0  0  0  0  0  0  0  0  0
    1.3369    0.1947    0.9473 H   0  0  0  0  0  0  0  0  0  0  0  0
    3.5906    0.6933    1.7247 H   0  0  0  0  0  0  0  0  0  0  0  0
    4.9430    0.8185    0.5445 H   0  0  0  0  0  0  0  0  0  0  0  0
  1  2  1  0
  2  3  1  0
  2  5  1  0
  2  7  1  0
  3  4  1  0
  5  6  1  0
  7  8  1  0
  7 12  2  0
  8  9  1  0
  9 10  1  0
  9 11  2  0
  3 13  1  0
  3 14  1  0
  4 15  1  0
  4 16  1  0
  4 17  1  0
  5 18  1  0
  5 19  1  0
  6 20  1  0
  6 21  1  0
  6 22  1  0
  8 23  1  0
 10 24  1  0
 10 25  1  0
M  END
$$$$
