CC(CC)(O)CC
     RDKit          3D

 21 20  0  0  0  0  0  0  0  0999 V2000
   -0.8014    1.7284    0.3644 C   0  0  0  0  0  0  0  0  0  0  0  0
    0.0382    0.6469   -0.3510 C   0  0  0  0  0  0  0  0  0  0  0  0
   -0.8748   -0.5178   -0.8452 C   0  0  0  0  0  0  0  0  0  0  0  0
   -1.5424   -1.3393    0.2629 C   0  0  0  0  0  0  0  0  0  0  0  0
    0.6670    1.2354   -1.4668 O   0  0  0  0  0  0  0  0  0  0  0  0
    1.1519    0.1659    0.6180 C   0  0  0  0  0  0  0  0  0  0  0  0
    2.0849   -0.8884    0.0154 C   0  0  0  0  0  0  0  0  0  0  0  0
   -1.1975    1.3589    1.3334 H   0  0  0  0  0  0  0  0  0  0  0  0
   -1.6560    2.0466   -0.2703 H   0  0  0  0  0  0  0  0  0  0  0  0
   -0.1753    2.6231    0.5707 H   0  0  0  0  0  0  0  0  0  0  0  0
   -1.6781   -0.1015   -1.4920 H   0  0  0  0  0  0  0  0  0  0  0  0
   -0.2864   -1.2055   -1.4895 H   0  0  0  0  0  0  0  0  0  0  0  0
   -2.1993   -2.1060   -0.1993 H   0  0  0  0  0  0  0  0  0  0  0  0
   -0.7877   -1.8696    0.8783 H   0  0  0  0  0  0  0  0  0  0  0  0
   -2.1727   -0.6984    0.9121 H   0  0  0  0  0  0  0  0  0  0  0  0
   -0.0393    1.5767   -2.0767 H   0  0  0  0  0  0  0  0  0  0  0  0
    1.7754    1.0407    0.9078 H   0  0  0  0  0  0  0  0  0  0  0  0
    0.7124   -0.2343    1.5567 H   0  0  0  0  0  0  0  0  0  0  0  0
    2.9200   -1.0855    0.7202 H   0  0  0  0  0  0  0  0  0  0  0  0
    2.5144   -0.5325   -0.9445 H   0  0  0  0  0  0  0  0  0  0  0  0
    1.5469   -1.8441   -0.1510 H   0  0  0  0  0  0  0  0  0  0  0  0
  1  2  1  0
  2  6  1  0
  2  3  1  0
  2  5  1  0
  3  4  1  0
  6  7  1  0
  1  8  1  0
  1  9  1  0
  1 10  1  0
  3 11  1  0
  3 12  1  0
  4 13  1  0
  4 14  1  0
  4 15  1  0
  5 16  1  0
  6 17  1  0
  6 18  1  0
  7 19  1  0
  7 20  1  0
  7 21  1  0
M  END
$$$$
