CC(Cl)CC
     RDKit          3D

 14 13  0  0  1  0  0  0  0  0999 V2000
   -1.9401   -0.0077   -0.1204 C   0  0  0  0  0  0  0  0  0  0  0  0
   -0.5524   -0.1799    0.4960 C   0  0  1  0  0  0  0  0  0  0  0  0
   -0.3888   -1.8544    1.1029 Cl  0  0  0  0  0  0  0  0  0  0  0  0
    0.5447    0.1356   -0.5350 C   0  0  0  0  0  0  0  0  0  0  0  0
    1.9343    0.1837    0.0993 C   0  0  0  0  0  0  0  0  0  0  0  0
   -2.0819    1.0396   -0.4625 H   0  0  0  0  0  0  0  0  0  0  0  0
   -2.7208   -0.2352    0.6362 H   0  0  0  0  0  0  0  0  0  0  0  0
   -2.0692   -0.6923   -0.9861 H   0  0  0  0  0  0  0  0  0  0  0  0
   -0.4645    0.5165    1.3583 H   0  0  0  0  0  0  0  0  0  0  0  0
    0.5364   -0.6286   -1.3427 H   0  0  0  0  0  0  0  0  0  0  0  0
    0.3441    1.1265   -0.9983 H   0  0  0  0  0  0  0  0  0  0  0  0
    2.6838    0.4588   -0.6724 H   0  0  0  0  0  0  0  0  0  0  0  0
    2.2102   -0.8073    0.5168 H   0  0  0  0  0  0  0  0  0  0  0  0
    1.9641    0.9446    0.9079 H   0  0  0  0  0  0  0  0  0  0  0  0
  1  2  1  0
  2  4  1  0
  2  3  1  0
  4  5  1  0
  1  6  1  0
  1  7  1  0
  1  8  1  0
  2  9  1  1
  4 10  1  0
  4 11  1  0
  5 12  1  0
  5 13  1  0
  5 14  1  0
M  END
$$$$
