ClC(Cl)(Cl)C(c1ccc(Cl)cc1)c(cccc2)c2Cl
     RDKit          3D

 28 29  0  0  1  0  0  0  0  0999 V2000
    0.7900    2.5359    1.8614 Cl  0  0  0  0  0  0  0  0  0  0  0  0
    0.0364    2.4629    0.2391 C   0  0  0  0  0  0  0  0  0  0  0  0
    0.9182    3.6401   -0.7797 Cl  0  0  0  0  0  0  0  0  0  0  0  0
   -1.6223    3.1256    0.3821 Cl  0  0  0  0  0  0  0  0  0  0  0  0
    0.0789    1.0264   -0.4158 C   0  0  1  0  0  0  0  0  0  0  0  0
    1.2825    0.1654    0.0022 C   0  0  0  0  0  0  0  0  0  0  0  0
    1.1503   -1.1540    0.4958 C   0  0  0  0  0  0  0  0  0  0  0  0
    2.2761   -1.9054    0.8453 C   0  0  0  0  0  0  0  0  0  0  0  0
    3.5550   -1.3706    0.6883 C   0  0  0  0  0  0  0  0  0  0  0  0
    4.9648   -2.3186    1.1250 Cl  0  0  0  0  0  0  0  0  0  0  0  0
    3.7097   -0.0867    0.1656 C   0  0  0  0  0  0  0  0  0  0  0  0
    2.5877    0.6687   -0.1851 C   0  0  0  0  0  0  0  0  0  0  0  0
   -1.2681    0.2804   -0.3856 C   0  0  0  0  0  0  0  0  0  0  0  0
   -1.8884   -0.0281   -1.6165 C   0  0  0  0  0  0  0  0  0  0  0  0
   -3.1212   -0.6811   -1.6591 C   0  0  0  0  0  0  0  0  0  0  0  0
   -3.7623   -1.0428   -0.4775 C   0  0  0  0  0  0  0  0  0  0  0  0
   -3.1701   -0.7574    0.7513 C   0  0  0  0  0  0  0  0  0  0  0  0
   -1.9331   -0.1031    0.8132 C   0  0  0  0  0  0  0  0  0  0  0  0
   -1.2577    0.1577    2.4152 Cl  0  0  0  0  0  0  0  0  0  0  0  0
    0.2812    1.2178   -1.4926 H   0  0  0  0  0  0  0  0  0  0  0  0
    0.1881   -1.6295    0.6023 H   0  0  0  0  0  0  0  0  0  0  0  0
    2.1516   -2.9098    1.2298 H   0  0  0  0  0  0  0  0  0  0  0  0
    4.7002    0.3265    0.0233 H   0  0  0  0  0  0  0  0  0  0  0  0
    2.7477    1.6485   -0.6085 H   0  0  0  0  0  0  0  0  0  0  0  0
   -1.4213    0.2404   -2.5558 H   0  0  0  0  0  0  0  0  0  0  0  0
   -3.5810   -0.9061   -2.6129 H   0  0  0  0  0  0  0  0  0  0  0  0
   -4.7180   -1.5497   -0.5134 H   0  0  0  0  0  0  0  0  0  0  0  0
   -3.6746   -1.0534    1.6626 H   0  0  0  0  0  0  0  0  0  0  0  0
  1  2  1  0
  2  5  1  0
  2  4  1  0
  2  3  1  0
  5  6  1  0
  5 13  1  0
  6 12  1  0
  6  7  2  0
  7  8  1  0
  8  9  2  0
  9 11  1  0
  9 10  1  0
 11 12  2  0
 13 14  2  0
 13 18  1  0
 14 15  1  0
 15 16  2  0
 16 17  1  0
 17 18  2  0
 18 19  1  0
  5 20  1  6
  7 21  1  0
  8 22  1  0
 11 23  1  0
 12 24  1  0
 14 25  1  0
 15 26  1  0
 16 27  1  0
 17 28  1  0
M  END
$$$$
