NC(CCl)=O
     RDKit          3D

  9  8  0  0  0  0  0  0  0  0999 V2000
    1.3787    0.0643   -0.3846 N   0  0  0  0  0  0  0  0  0  0  0  0
    0.1478   -0.5808   -0.0590 C   0  0  0  0  0  0  0  0  0  0  0  0
   -1.0021    0.2108    0.4750 C   0  0  0  0  0  0  0  0  0  0  0  0
   -1.8877    0.9631   -0.8726 Cl  0  0  0  0  0  0  0  0  0  0  0  0
    0.0177   -1.8176   -0.2598 O   0  0  0  0  0  0  0  0  0  0  0  0
    1.4936    1.0928   -0.2457 H   0  0  0  0  0  0  0  0  0  0  0  0
    2.1770   -0.4873   -0.7702 H   0  0  0  0  0  0  0  0  0  0  0  0
   -1.6929   -0.4493    1.0413 H   0  0  0  0  0  0  0  0  0  0  0  0
   -0.6321    1.0040    1.1580 H   0  0  0  0  0  0  0  0  0  0  0  0
  1  2  1  0
  2  3  1  0
  2  5  2  0
  3  4  1  0
  1  6  1  0
  1  7  1  0
  3  8  1  0
  3  9  1  0
M  END
$$$$
