ClC(Cl)CCl
     RDKit          3D

  8  7  0  0  0  0  0  0  0  0999 V2000
   -1.5976    1.4641   -0.1773 Cl  0  0  0  0  0  0  0  0  0  0  0  0
   -0.7236   -0.0561    0.1376 C   0  0  0  0  0  0  0  0  0  0  0  0
   -1.3339   -1.3075   -0.9779 Cl  0  0  0  0  0  0  0  0  0  0  0  0
    0.7759    0.1585   -0.0550 C   0  0  0  0  0  0  0  0  0  0  0  0
    1.6953   -1.2884    0.4387 Cl  0  0  0  0  0  0  0  0  0  0  0  0
   -0.9284   -0.3698    1.1831 H   0  0  0  0  0  0  0  0  0  0  0  0
    0.9979    0.3873   -1.1191 H   0  0  0  0  0  0  0  0  0  0  0  0
    1.1147    1.0120    0.5698 H   0  0  0  0  0  0  0  0  0  0  0  0
  1  2  1  0
  2  4  1  0
  2  3  1  0
  4  5  1  0
  2  6  1  0
  4  7  1  0
  4  8  1  0
M  END
$$$$
