C(Cl)=C(Cl)Cl
     RDKit          3D

  6  5  0  0  0  0  0  0  0  0999 V2000
    0.6912   -0.2269    0.0083 C   0  0  0  0  0  0  0  0  0  0  0  0
    1.8933    0.9884   -0.4116 Cl  0  0  0  0  0  0  0  0  0  0  0  0
   -0.6191    0.0434    0.0357 C   0  0  0  0  0  0  0  0  0  0  0  0
   -1.2472    1.6426   -0.3476 Cl  0  0  0  0  0  0  0  0  0  0  0  0
   -1.7590   -1.2222    0.4644 Cl  0  0  0  0  0  0  0  0  0  0  0  0
    1.0408   -1.2254    0.2508 H   0  0  0  0  0  0  0  0  0  0  0  0
  1  2  1  0
  1  3  2  0
  3  4  1  0
  3  5  1  0
  1  6  1  0
M  END
$$$$
