CC(OC)=O
     RDKit          3D

 11 10  0  0  0  0  0  0  0  0999 V2000
   -1.8903    0.1581   -0.0882 C   0  0  0  0  0  0  0  0  0  0  0  0
   -0.4636   -0.2174   -0.3036 C   0  0  0  0  0  0  0  0  0  0  0  0
    0.5329    0.3700    0.4812 O   0  0  0  0  0  0  0  0  0  0  0  0
    1.9121    0.0571    0.3281 C   0  0  0  0  0  0  0  0  0  0  0  0
   -0.1697   -1.0622   -1.1926 O   0  0  0  0  0  0  0  0  0  0  0  0
   -2.4754   -0.7428    0.1915 H   0  0  0  0  0  0  0  0  0  0  0  0
   -1.9709    0.9083    0.7263 H   0  0  0  0  0  0  0  0  0  0  0  0
   -2.3071    0.5918   -1.0211 H   0  0  0  0  0  0  0  0  0  0  0  0
    2.5031    0.6465    1.0588 H   0  0  0  0  0  0  0  0  0  0  0  0
    2.0800   -1.0242    0.5181 H   0  0  0  0  0  0  0  0  0  0  0  0
    2.2488    0.3147   -0.6985 H   0  0  0  0  0  0  0  0  0  0  0  0
  1  2  1  0
  2  5  2  0
  2  3  1  0
  3  4  1  0
  1  6  1  0
  1  7  1  0
  1  8  1  0
  4  9  1  0
  4 10  1  0
  4 11  1  0
M  END
$$$$
