ClC(Cl)C(Cl)Cl
     RDKit          3D

  8  7  0  0  0  0  0  0  0  0999 V2000
    1.1835    1.3941    1.0701 Cl  0  0  0  0  0  0  0  0  0  0  0  0
    0.7513    0.1425   -0.1300 C   0  0  0  0  0  0  0  0  0  0  0  0
    1.7372   -1.3144    0.1661 Cl  0  0  0  0  0  0  0  0  0  0  0  0
   -0.7441   -0.1980   -0.0943 C   0  0  0  0  0  0  0  0  0  0  0  0
   -1.7240    1.2137   -0.5726 Cl  0  0  0  0  0  0  0  0  0  0  0  0
   -1.2678   -0.7522    1.5219 Cl  0  0  0  0  0  0  0  0  0  0  0  0
    1.0121    0.5260   -1.1391 H   0  0  0  0  0  0  0  0  0  0  0  0
   -0.9483   -1.0117   -0.8221 H   0  0  0  0  0  0  0  0  0  0  0  0
  1  2  1  0
  2  4  1  0
  2  3  1  0
  4  6  1  0
  4  5  1  0
  2  7  1  0
  4  8  1  0
M  END
$$$$
