CC(C)C(O)=O
     RDKit          3D

 14 13  0  0  0  0  0  0  0  0999 V2000
   -1.0074   -1.1126    0.4457 C   0  0  0  0  0  0  0  0  0  0  0  0
   -0.0719    0.1001    0.4943 C   0  0  0  0  0  0  0  0  0  0  0  0
   -0.6605    1.2615   -0.3169 C   0  0  0  0  0  0  0  0  0  0  0  0
    1.3038   -0.2827    0.0102 C   0  0  0  0  0  0  0  0  0  0  0  0
    1.8381    0.2784   -1.1478 O   0  0  0  0  0  0  0  0  0  0  0  0
    1.9834   -1.1186    0.6647 O   0  0  0  0  0  0  0  0  0  0  0  0
   -1.1091   -1.4866   -0.5961 H   0  0  0  0  0  0  0  0  0  0  0  0
   -0.6110   -1.9310    1.0840 H   0  0  0  0  0  0  0  0  0  0  0  0
   -2.0134   -0.8366    0.8279 H   0  0  0  0  0  0  0  0  0  0  0  0
    0.0151    0.4344    1.5516 H   0  0  0  0  0  0  0  0  0  0  0  0
   -0.7893    0.9732   -1.3826 H   0  0  0  0  0  0  0  0  0  0  0  0
   -1.6502    1.5526    0.0955 H   0  0  0  0  0  0  0  0  0  0  0  0
    0.0092    2.1463   -0.2594 H   0  0  0  0  0  0  0  0  0  0  0  0
    2.7631    0.0216   -1.4711 H   0  0  0  0  0  0  0  0  0  0  0  0
  1  2  1  0
  2  3  1  0
  2  4  1  0
  4  5  1  0
  4  6  2  0
  1  7  1  0
  1  8  1  0
  1  9  1  0
  2 10  1  0
  3 11  1  0
  3 12  1  0
  3 13  1  0
  5 14  1  0
M  END
$$$$
