OC(C2(C(C(O)=C1C(N)=O)N(C)C))(C(O)=C(C3=O)C(C2O)(C(C)(O)c4c3c(O)ccc4))C1=O
     RDKit          3D

 57 60  0  0  1  0  0  0  0  0999 V2000
   -0.4422    1.9693   -2.2474 O   0  0  0  0  0  0  0  0  0  0  0  0
   -0.9700    1.4877   -1.0315 C   0  0  1  0  0  0  0  0  0  0  0  0
   -1.2785   -0.0149   -1.1758 C   0  0  2  0  0  0  0  0  0  0  0  0
   -1.9962   -0.5909    0.0996 C   0  0  1  0  0  0  0  0  0  0  0  0
   -2.9671    0.3807    0.7823 C   0  0  0  0  0  0  0  0  0  0  0  0
   -3.6821   -0.1088    1.8813 O   0  0  0  0  0  0  0  0  0  0  0  0
   -3.1367    1.6514    0.3494 C   0  0  0  0  0  0  0  0  0  0  0  0
   -4.1111    2.5663    0.9785 C   0  0  0  0  0  0  0  0  0  0  0  0
   -5.1466    3.1651    0.1994 N   0  0  0  0  0  0  0  0  0  0  0  0
   -4.0127    2.8461    2.2033 O   0  0  0  0  0  0  0  0  0  0  0  0
   -2.6495   -1.8837   -0.2544 N   0  0  0  0  0  0  0  0  0  0  0  0
   -4.0102   -1.7615   -0.8106 C   0  0  0  0  0  0  0  0  0  0  0  0
   -2.6091   -2.8709    0.8368 C   0  0  0  0  0  0  0  0  0  0  0  0
    0.0519    1.6653    0.0873 C   0  0  0  0  0  0  0  0  0  0  0  0
   -0.0597    2.7316    0.9873 O   0  0  0  0  0  0  0  0  0  0  0  0
    1.0865    0.8003    0.1931 C   0  0  0  0  0  0  0  0  0  0  0  0
    2.1040    0.9641    1.2547 C   0  0  0  0  0  0  0  0  0  0  0  0
    1.8058    1.5249    2.3449 O   0  0  0  0  0  0  0  0  0  0  0  0
    1.3503   -0.2037   -0.9246 C   0  0  2  0  0  0  0  0  0  0  0  0
    0.0242   -0.7960   -1.5495 C   0  0  1  0  0  0  0  0  0  0  0  0
   -0.1269   -2.1638   -1.2593 O   0  0  0  0  0  0  0  0  0  0  0  0
    2.4474   -1.2803   -0.5558 C   0  0  2  0  0  0  0  0  0  0  0  0
    2.8778   -2.0065   -1.8580 C   0  0  0  0  0  0  0  0  0  0  0  0
    1.9228   -2.2483    0.3236 O   0  0  0  0  0  0  0  0  0  0  0  0
    3.6643   -0.6248    0.1301 C   0  0  0  0  0  0  0  0  0  0  0  0
    3.4663    0.4383    1.0444 C   0  0  0  0  0  0  0  0  0  0  0  0
    4.5667    0.9937    1.7370 C   0  0  0  0  0  0  0  0  0  0  0  0
    4.3891    2.0686    2.6089 O   0  0  0  0  0  0  0  0  0  0  0  0
    5.8497    0.4749    1.5416 C   0  0  0  0  0  0  0  0  0  0  0  0
    6.0491   -0.5906    0.6717 C   0  0  0  0  0  0  0  0  0  0  0  0
    4.9726   -1.1442   -0.0189 C   0  0  0  0  0  0  0  0  0  0  0  0
   -2.2732    2.1829   -0.7219 C   0  0  0  0  0  0  0  0  0  0  0  0
   -2.5982    3.2339   -1.3400 O   0  0  0  0  0  0  0  0  0  0  0  0
   -0.1372    2.9035   -2.0991 H   0  0  0  0  0  0  0  0  0  0  0  0
   -1.9765   -0.1237   -2.0363 H   0  0  0  0  0  0  0  0  0  0  0  0
   -1.1961   -0.7752    0.8518 H   0  0  0  0  0  0  0  0  0  0  0  0
   -4.4097    0.4049    2.3604 H   0  0  0  0  0  0  0  0  0  0  0  0
   -5.2659    2.9195   -0.8084 H   0  0  0  0  0  0  0  0  0  0  0  0
   -5.8159    3.8350    0.6391 H   0  0  0  0  0  0  0  0  0  0  0  0
   -4.0647   -0.9424   -1.5573 H   0  0  0  0  0  0  0  0  0  0  0  0
   -4.2837   -2.7036   -1.3312 H   0  0  0  0  0  0  0  0  0  0  0  0
   -4.7602   -1.5696   -0.0131 H   0  0  0  0  0  0  0  0  0  0  0  0
   -1.5616   -3.0370    1.1676 H   0  0  0  0  0  0  0  0  0  0  0  0
   -2.9949   -3.8491    0.4777 H   0  0  0  0  0  0  0  0  0  0  0  0
   -3.2193   -2.5459    1.7045 H   0  0  0  0  0  0  0  0  0  0  0  0
   -0.7684    3.4494    0.9076 H   0  0  0  0  0  0  0  0  0  0  0  0
    1.8128    0.4209   -1.7243 H   0  0  0  0  0  0  0  0  0  0  0  0
    0.1464   -0.6925   -2.6559 H   0  0  0  0  0  0  0  0  0  0  0  0
   -0.6759   -2.5590   -1.9867 H   0  0  0  0  0  0  0  0  0  0  0  0
    3.5042   -1.3399   -2.4895 H   0  0  0  0  0  0  0  0  0  0  0  0
    3.4417   -2.9342   -1.6258 H   0  0  0  0  0  0  0  0  0  0  0  0
    2.0145   -2.3291   -2.4712 H   0  0  0  0  0  0  0  0  0  0  0  0
    1.5629   -1.7811    1.1218 H   0  0  0  0  0  0  0  0  0  0  0  0
    5.1664    2.4822    3.1107 H   0  0  0  0  0  0  0  0  0  0  0  0
    6.6956    0.8963    2.0699 H   0  0  0  0  0  0  0  0  0  0  0  0
    7.0435   -0.9968    0.5372 H   0  0  0  0  0  0  0  0  0  0  0  0
    5.1833   -1.9886   -0.6566 H   0  0  0  0  0  0  0  0  0  0  0  0
  2  1  1  6
  2  3  1  0
  2 14  1  0
  2 32  1  0
  3  4  1  0
  3 20  1  0
  4  5  1  0
  4 11  1  0
  5  7  2  0
  5  6  1  0
  7 32  1  0
  7  8  1  0
  8  9  1  0
  8 10  2  0
 11 12  1  0
 11 13  1  0
 14 16  2  0
 14 15  1  0
 16 19  1  0
 16 17  1  0
 17 26  1  0
 17 18  2  0
 19 20  1  0
 19 22  1  0
 20 21  1  0
 22 23  1  6
 22 25  1  0
 22 24  1  0
 25 31  1  0
 25 26  2  0
 26 27  1  0
 27 29  2  0
 27 28  1  0
 29 30  1  0
 30 31  2  0
 32 33  2  0
  1 34  1  0
  3 35  1  6
  4 36  1  1
  6 37  1  0
  9 38  1  0
  9 39  1  0
 12 40  1  0
 12 41  1  0
 12 42  1  0
 13 43  1  0
 13 44  1  0
 13 45  1  0
 15 46  1  0
 19 47  1  6
 20 48  1  6
 21 49  1  0
 23 50  1  0
 23 51  1  0
 23 52  1  0
 24 53  1  0
 28 54  1  0
 29 55  1  0
 30 56  1  0
 31 57  1  0
M  END
$$$$
