C=C(C)C(OC)=O
     RDKit          3D

 15 14  0  0  0  0  0  0  0  0999 V2000
   -1.7872    1.3939    0.8719 C   0  0  0  0  0  0  0  0  0  0  0  0
   -1.0202    0.4534    0.3073 C   0  0  0  0  0  0  0  0  0  0  0  0
   -1.6503   -0.6071   -0.5528 C   0  0  0  0  0  0  0  0  0  0  0  0
    0.4347    0.3959    0.5747 C   0  0  0  0  0  0  0  0  0  0  0  0
    1.1931   -0.6491    0.0365 O   0  0  0  0  0  0  0  0  0  0  0  0
    2.5943   -0.7703    0.2502 C   0  0  0  0  0  0  0  0  0  0  0  0
    0.9908    1.2807    1.2835 O   0  0  0  0  0  0  0  0  0  0  0  0
   -2.8563    1.4183    0.7009 H   0  0  0  0  0  0  0  0  0  0  0  0
   -1.3660    2.1551    1.5164 H   0  0  0  0  0  0  0  0  0  0  0  0
   -1.7681   -1.5394    0.0381 H   0  0  0  0  0  0  0  0  0  0  0  0
   -2.6474   -0.2916   -0.9291 H   0  0  0  0  0  0  0  0  0  0  0  0
   -1.0082   -0.8158   -1.4344 H   0  0  0  0  0  0  0  0  0  0  0  0
    2.9662   -1.6738   -0.2749 H   0  0  0  0  0  0  0  0  0  0  0  0
    3.1189    0.1218   -0.1527 H   0  0  0  0  0  0  0  0  0  0  0  0
    2.8059   -0.8721    1.3357 H   0  0  0  0  0  0  0  0  0  0  0  0
  1  2  2  3
  2  3  1  0
  2  4  1  0
  4  7  2  0
  4  5  1  0
  5  6  1  0
  1  8  1  0
  1  9  1  0
  3 10  1  0
  3 11  1  0
  3 12  1  0
  6 13  1  0
  6 14  1  0
  6 15  1  0
M  END
$$$$
