
     RDKit          3D

 69 72  0  0  1  0  0  0  0  0999 V2000
   -6.6709   -0.2670   -0.3792 O   0  0  0  0  0  0  0  0  0  0  0  0
   -5.8280    0.8295   -0.1313 C   0  0  2  0  0  0  0  0  0  0  0  0
   -4.8599    1.0676   -1.3278 C   0  0  0  0  0  0  0  0  0  0  0  0
   -3.6127    0.1403   -1.3933 C   0  0  0  0  0  0  0  0  0  0  0  0
   -3.1467   -0.4338   -0.0174 C   0  0  1  0  0  0  0  0  0  0  0  0
   -3.8212   -1.8253    0.1950 C   0  0  0  0  0  0  0  0  0  0  0  0
   -1.5822   -0.6664    0.0778 C   0  0  1  0  0  0  0  0  0  0  0  0
   -0.8725   -1.1360   -1.2095 C   0  0  0  0  0  0  0  0  0  0  0  0
    0.5568   -1.6874   -0.9179 C   0  0  1  0  0  0  0  0  0  0  0  0
    1.2412   -1.7567   -2.1350 O   0  0  0  0  0  0  0  0  0  0  0  0
    1.3443   -0.8716    0.2143 C   0  0  1  0  0  0  0  0  0  0  0  0
    1.2716   -1.7191    1.5339 C   0  0  0  0  0  0  0  0  0  0  0  0
    2.8792   -0.4653    0.0688 C   0  0  1  0  0  0  0  0  0  0  0  0
    3.5498   -0.3162   -1.3489 C   0  0  1  0  0  0  0  0  0  0  0  0
    2.9656    0.8011   -2.2396 C   0  0  0  0  0  0  0  0  0  0  0  0
    5.1084   -0.2857   -1.3205 C   0  0  0  0  0  0  0  0  0  0  0  0
    5.7667    0.9949   -0.7801 C   0  0  0  0  0  0  0  0  0  0  0  0
    7.2270    1.0342   -1.1336 C   0  0  0  0  0  0  0  0  0  0  0  0
    8.2049    0.9422   -0.1474 O   0  0  0  0  0  0  0  0  0  0  0  0
    7.5752    1.1717   -2.3354 O   0  0  0  0  0  0  0  0  0  0  0  0
    3.0175    0.8259    0.9343 C   0  0  0  0  0  0  0  0  0  0  0  0
    1.6153    1.2968    1.3225 C   0  0  0  0  0  0  0  0  0  0  0  0
    0.6886    0.5129    0.4100 C   0  0  2  0  0  0  0  0  0  0  0  0
   -0.8452    0.5449    0.7079 C   0  0  2  0  0  0  0  0  0  0  0  0
   -1.2783    0.7085    2.1981 C   0  0  1  0  0  0  0  0  0  0  0  0
   -1.0093    2.0255    2.6065 O   0  0  0  0  0  0  0  0  0  0  0  0
   -2.7996    0.4056    2.4025 C   0  0  0  0  0  0  0  0  0  0  0  0
   -3.5837    0.5946    1.0858 C   0  0  2  0  0  0  0  0  0  0  0  0
   -5.1114    0.6495    1.2404 C   0  0  0  0  0  0  0  0  0  0  0  0
   -7.2004   -0.0560   -1.1942 H   0  0  0  0  0  0  0  0  0  0  0  0
   -6.4727    1.7358   -0.0494 H   0  0  0  0  0  0  0  0  0  0  0  0
   -5.4165    0.9971   -2.2873 H   0  0  0  0  0  0  0  0  0  0  0  0
   -4.5057    2.1211   -1.2646 H   0  0  0  0  0  0  0  0  0  0  0  0
   -3.8091   -0.6864   -2.1111 H   0  0  0  0  0  0  0  0  0  0  0  0
   -2.7987    0.7492   -1.8392 H   0  0  0  0  0  0  0  0  0  0  0  0
   -3.6881   -2.1850    1.2359 H   0  0  0  0  0  0  0  0  0  0  0  0
   -3.3734   -2.5833   -0.4800 H   0  0  0  0  0  0  0  0  0  0  0  0
   -4.9013   -1.8219   -0.0267 H   0  0  0  0  0  0  0  0  0  0  0  0
   -1.4612   -1.5089    0.7842 H   0  0  0  0  0  0  0  0  0  0  0  0
   -0.7901   -0.2866   -1.9211 H   0  0  0  0  0  0  0  0  0  0  0  0
   -1.4685   -1.9299   -1.7070 H   0  0  0  0  0  0  0  0  0  0  0  0
    0.4206   -2.7382   -0.5609 H   0  0  0  0  0  0  0  0  0  0  0  0
    0.8161   -2.4684   -2.6836 H   0  0  0  0  0  0  0  0  0  0  0  0
    1.8036   -2.6852    1.3862 H   0  0  0  0  0  0  0  0  0  0  0  0
    0.2507   -1.9710    1.8590 H   0  0  0  0  0  0  0  0  0  0  0  0
    1.7614   -1.2145    2.3914 H   0  0  0  0  0  0  0  0  0  0  0  0
    3.4911   -1.2549    0.5630 H   0  0  0  0  0  0  0  0  0  0  0  0
    3.3925   -1.2713   -1.8771 H   0  0  0  0  0  0  0  0  0  0  0  0
    2.9676    1.7872   -1.7369 H   0  0  0  0  0  0  0  0  0  0  0  0
    1.9243    0.5730   -2.5346 H   0  0  0  0  0  0  0  0  0  0  0  0
    3.5564    0.8958   -3.1745 H   0  0  0  0  0  0  0  0  0  0  0  0
    5.4622   -0.4513   -2.3646 H   0  0  0  0  0  0  0  0  0  0  0  0
    5.4791   -1.1532   -0.7285 H   0  0  0  0  0  0  0  0  0  0  0  0
    5.6695    1.0209    0.3241 H   0  0  0  0  0  0  0  0  0  0  0  0
    5.2875    1.9015   -1.2067 H   0  0  0  0  0  0  0  0  0  0  0  0
    7.9619    0.8226    0.8277 H   0  0  0  0  0  0  0  0  0  0  0  0
    3.6165    0.6205    1.8501 H   0  0  0  0  0  0  0  0  0  0  0  0
    3.5081    1.6593    0.3988 H   0  0  0  0  0  0  0  0  0  0  0  0
    1.4936    2.3918    1.1665 H   0  0  0  0  0  0  0  0  0  0  0  0
    1.4316    1.0677    2.3927 H   0  0  0  0  0  0  0  0  0  0  0  0
    0.7813    1.0226   -0.5772 H   0  0  0  0  0  0  0  0  0  0  0  0
   -1.2067    1.4547    0.1751 H   0  0  0  0  0  0  0  0  0  0  0  0
   -0.6953   -0.0036    2.8245 H   0  0  0  0  0  0  0  0  0  0  0  0
   -0.9729    2.0198    3.5977 H   0  0  0  0  0  0  0  0  0  0  0  0
   -3.2171    1.0738    3.1868 H   0  0  0  0  0  0  0  0  0  0  0  0
   -2.9274   -0.6342    2.7704 H   0  0  0  0  0  0  0  0  0  0  0  0
   -3.3156    1.6225    0.7496 H   0  0  0  0  0  0  0  0  0  0  0  0
   -5.4743   -0.2651    1.7588 H   0  0  0  0  0  0  0  0  0  0  0  0
   -5.3711    1.5066    1.9019 H   0  0  0  0  0  0  0  0  0  0  0  0
  1  2  1  0
  2  3  1  0
  2 29  1  0
  3  4  1  0
  4  5  1  0
  5  6  1  1
  5 28  1  0
  5  7  1  0
  7  8  1  0
  7 24  1  0
  8  9  1  0
  9 11  1  0
  9 10  1  0
 11 12  1  1
 11 13  1  0
 11 23  1  0
 13 21  1  0
 13 14  1  0
 14 15  1  0
 14 16  1  0
 16 17  1  0
 17 18  1  0
 18 19  1  0
 18 20  2  0
 21 22  1  0
 22 23  1  0
 23 24  1  0
 24 25  1  0
 25 27  1  0
 25 26  1  0
 27 28  1  0
 28 29  1  0
  1 30  1  0
  2 31  1  1
  3 32  1  0
  3 33  1  0
  4 34  1  0
  4 35  1  0
  6 36  1  0
  6 37  1  0
  6 38  1  0
  7 39  1  1
  8 40  1  0
  8 41  1  0
  9 42  1  1
 10 43  1  0
 12 44  1  0
 12 45  1  0
 12 46  1  0
 13 47  1  1
 14 48  1  6
 15 49  1  0
 15 50  1  0
 15 51  1  0
 16 52  1  0
 16 53  1  0
 17 54  1  0
 17 55  1  0
 19 56  1  0
 21 57  1  0
 21 58  1  0
 22 59  1  0
 22 60  1  0
 23 61  1  6
 24 62  1  6
 25 63  1  1
 26 64  1  0
 27 65  1  0
 27 66  1  0
 28 67  1  6
 29 68  1  0
 29 69  1  0
M  END
$$$$
