S=C1C=Nc(cncn2)c2N1
     RDKit          3D

 15 16  0  0  0  0  0  0  0  0999 V2000
   -3.7279    0.8101   -0.0486 S   0  0  0  0  0  0  0  0  0  0  0  0
   -2.1931    0.2397   -0.0010 C   0  0  0  0  0  0  0  0  0  0  0  0
   -1.9582   -1.1337    0.1560 C   0  0  0  0  0  0  0  0  0  0  0  0
   -0.6810   -1.5973    0.1944 N   0  0  0  0  0  0  0  0  0  0  0  0
    0.3715   -0.7467    0.0824 C   0  0  0  0  0  0  0  0  0  0  0  0
    1.6875   -1.2051    0.1196 C   0  0  0  0  0  0  0  0  0  0  0  0
    2.7107   -0.3178    0.0038 N   0  0  0  0  0  0  0  0  0  0  0  0
    2.4727    1.0132   -0.1483 C   0  0  0  0  0  0  0  0  0  0  0  0
    1.1961    1.4806   -0.1871 N   0  0  0  0  0  0  0  0  0  0  0  0
    0.1420    0.6297   -0.0751 C   0  0  0  0  0  0  0  0  0  0  0  0
   -1.1365    1.0953   -0.1136 N   0  0  0  0  0  0  0  0  0  0  0  0
   -2.7814   -1.8312    0.2473 H   0  0  0  0  0  0  0  0  0  0  0  0
    1.9007   -2.2594    0.2398 H   0  0  0  0  0  0  0  0  0  0  0  0
    3.3014    1.7019   -0.2386 H   0  0  0  0  0  0  0  0  0  0  0  0
   -1.3046    2.1208   -0.2310 H   0  0  0  0  0  0  0  0  0  0  0  0
  1  2  2  0
  2  3  1  0
  2 11  1  0
  3  4  2  0
  4  5  1  0
  5  6  1  0
  5 10  2  0
  6  7  2  0
  7  8  1  0
  8  9  2  0
  9 10  1  0
 10 11  1  0
  3 12  1  0
  6 13  1  0
  8 14  1  0
 11 15  1  0
M  END
$$$$
