COc2c1occc1c(c3c2OC(C)=CC3=O)OC
     RDKit          3D

 31 33  0  0  0  0  0  0  0  0999 V2000
   -0.6726   -3.7954    0.7757 C   0  0  0  0  0  0  0  0  0  0  0  0
    0.2405   -2.7178    0.6001 O   0  0  0  0  0  0  0  0  0  0  0  0
   -0.1192   -1.3945    0.2929 C   0  0  0  0  0  0  0  0  0  0  0  0
   -1.4424   -0.9726    0.1202 C   0  0  0  0  0  0  0  0  0  0  0  0
   -2.5237   -1.7077    0.2116 O   0  0  0  0  0  0  0  0  0  0  0  0
   -3.5634   -0.9381   -0.0185 C   0  0  0  0  0  0  0  0  0  0  0  0
   -3.1500    0.3582   -0.2721 C   0  0  0  0  0  0  0  0  0  0  0  0
   -1.7658    0.3326   -0.1809 C   0  0  0  0  0  0  0  0  0  0  0  0
   -0.7724    1.3285   -0.3339 C   0  0  0  0  0  0  0  0  0  0  0  0
    0.5845    0.9244   -0.1629 C   0  0  0  0  0  0  0  0  0  0  0  0
    0.8954   -0.4350    0.1491 C   0  0  0  0  0  0  0  0  0  0  0  0
    2.1601   -0.8159    0.3094 O   0  0  0  0  0  0  0  0  0  0  0  0
    3.1890    0.0154    0.1940 C   0  0  0  0  0  0  0  0  0  0  0  0
    4.5784   -0.4993    0.3908 C   0  0  0  0  0  0  0  0  0  0  0  0
    2.9740    1.3610   -0.1091 C   0  0  0  0  0  0  0  0  0  0  0  0
    1.6703    1.8221   -0.2890 C   0  0  0  0  0  0  0  0  0  0  0  0
    1.4926    3.0398   -0.5623 O   0  0  0  0  0  0  0  0  0  0  0  0
   -1.0419    2.6767   -0.6409 O   0  0  0  0  0  0  0  0  0  0  0  0
   -2.3137    3.2741   -0.8482 C   0  0  0  0  0  0  0  0  0  0  0  0
   -0.1020   -4.7173    1.0096 H   0  0  0  0  0  0  0  0  0  0  0  0
   -1.3588   -3.5817    1.6221 H   0  0  0  0  0  0  0  0  0  0  0  0
   -1.2486   -3.9651   -0.1582 H   0  0  0  0  0  0  0  0  0  0  0  0
   -4.5888   -1.2825   -0.0078 H   0  0  0  0  0  0  0  0  0  0  0  0
   -3.8139    1.1775   -0.4896 H   0  0  0  0  0  0  0  0  0  0  0  0
    5.1719   -0.3430   -0.5345 H   0  0  0  0  0  0  0  0  0  0  0  0
    4.5578   -1.5850    0.6234 H   0  0  0  0  0  0  0  0  0  0  0  0
    5.0625    0.0378    1.2334 H   0  0  0  0  0  0  0  0  0  0  0  0
    3.8122    2.0419   -0.2038 H   0  0  0  0  0  0  0  0  0  0  0  0
   -2.9276    3.1984    0.0732 H   0  0  0  0  0  0  0  0  0  0  0  0
   -2.8165    2.8117   -1.7228 H   0  0  0  0  0  0  0  0  0  0  0  0
   -2.1679    4.3508   -1.0710 H   0  0  0  0  0  0  0  0  0  0  0  0
  1  2  1  0
  2  3  1  0
  3  4  2  0
  3 11  1  0
  4  8  1  0
  4  5  1  0
  5  6  1  0
  6  7  2  0
  7  8  1  0
  8  9  2  0
  9 10  1  0
  9 18  1  0
 10 11  2  0
 10 16  1  0
 11 12  1  0
 12 13  1  0
 13 14  1  0
 13 15  2  0
 15 16  1  0
 16 17  2  0
 18 19  1  0
  1 20  1  0
  1 21  1  0
  1 22  1  0
  6 23  1  0
  7 24  1  0
 14 25  1  0
 14 26  1  0
 14 27  1  0
 15 28  1  0
 19 29  1  0
 19 30  1  0
 19 31  1  0
M  END
$$$$
