
     RDKit          3D

 28 29  0  0  0  0  0  0  0  0999 V2000
   -0.1906   -2.0998    0.2772 C   0  0  0  0  0  0  0  0  0  0  0  0
   -0.8022   -0.7794    0.0970 N   0  0  0  0  0  0  0  0  0  0  0  0
   -0.1198    0.3498   -0.0883 N   0  0  0  0  0  0  0  0  0  0  0  0
    1.3093    0.4579   -0.2062 C   0  0  0  0  0  0  0  0  0  0  0  0
    2.0310    1.2734    0.6801 C   0  0  0  0  0  0  0  0  0  0  0  0
    3.4201    1.3836    0.5628 C   0  0  0  0  0  0  0  0  0  0  0  0
    4.0952    0.6869   -0.4434 C   0  0  0  0  0  0  0  0  0  0  0  0
    3.3814   -0.1176   -1.3362 C   0  0  0  0  0  0  0  0  0  0  0  0
    1.9923   -0.2302   -1.2212 C   0  0  0  0  0  0  0  0  0  0  0  0
   -0.9913    1.3778   -0.0895 C   0  0  0  0  0  0  0  0  0  0  0  0
   -2.2671    0.8957    0.0856 C   0  0  0  0  0  0  0  0  0  0  0  0
   -3.4654    1.6687    0.1780 N   0  0  0  0  0  0  0  0  0  0  0  0
   -2.1249   -0.4810    0.1932 C   0  0  0  0  0  0  0  0  0  0  0  0
   -3.2194   -1.4751    0.4509 C   0  0  0  0  0  0  0  0  0  0  0  0
   -0.6717    2.5889   -0.2302 O   0  0  0  0  0  0  0  0  0  0  0  0
    0.2285   -2.4561   -0.6852 H   0  0  0  0  0  0  0  0  0  0  0  0
   -0.9289   -2.8459    0.6339 H   0  0  0  0  0  0  0  0  0  0  0  0
    0.6199   -2.0365    1.0333 H   0  0  0  0  0  0  0  0  0  0  0  0
    1.5174    1.8127    1.4659 H   0  0  0  0  0  0  0  0  0  0  0  0
    3.9730    2.0087    1.2520 H   0  0  0  0  0  0  0  0  0  0  0  0
    5.1702    0.7737   -0.5340 H   0  0  0  0  0  0  0  0  0  0  0  0
    3.9038   -0.6493   -2.1210 H   0  0  0  0  0  0  0  0  0  0  0  0
    1.4476   -0.8364   -1.9330 H   0  0  0  0  0  0  0  0  0  0  0  0
   -3.4276    2.7076    0.0828 H   0  0  0  0  0  0  0  0  0  0  0  0
   -4.3894    1.2192    0.3561 H   0  0  0  0  0  0  0  0  0  0  0  0
   -3.0822   -2.3646   -0.1983 H   0  0  0  0  0  0  0  0  0  0  0  0
   -3.1942   -1.7863    1.5157 H   0  0  0  0  0  0  0  0  0  0  0  0
   -4.2151   -1.0463    0.2217 H   0  0  0  0  0  0  0  0  0  0  0  0
  1  2  1  0
  2 13  1  0
  2  3  1  0
  3  4  1  0
  3 10  1  0
  4  9  1  0
  4  5  2  0
  5  6  1  0
  6  7  2  0
  7  8  1  0
  8  9  2  0
 10 11  1  0
 10 15  2  0
 11 13  2  0
 11 12  1  0
 13 14  1  0
  1 16  1  0
  1 17  1  0
  1 18  1  0
  5 19  1  0
  6 20  1  0
  7 21  1  0
  8 22  1  0
  9 23  1  0
 12 24  1  0
 12 25  1  0
 14 26  1  0
 14 27  1  0
 14 28  1  0
M  END
$$$$
