Cc1c[nH]c2c1cccc2
     RDKit          3D

 19 20  0  0  0  0  0  0  0  0999 V2000
    2.5973   -0.7675   -0.1674 C   0  0  0  0  0  0  0  0  0  0  0  0
    1.4127    0.1402   -0.0933 C   0  0  0  0  0  0  0  0  0  0  0  0
    1.4230    1.5316   -0.0997 C   0  0  0  0  0  0  0  0  0  0  0  0
    0.1606    2.0118   -0.0188 N   0  0  0  0  0  0  0  0  0  0  0  0
   -0.6436    0.9356    0.0384 C   0  0  0  0  0  0  0  0  0  0  0  0
    0.0854   -0.2252   -0.0047 C   0  0  0  0  0  0  0  0  0  0  0  0
   -0.5237   -1.4791    0.0405 C   0  0  0  0  0  0  0  0  0  0  0  0
   -1.9270   -1.5226    0.1328 C   0  0  0  0  0  0  0  0  0  0  0  0
   -2.6791   -0.3273    0.1772 C   0  0  0  0  0  0  0  0  0  0  0  0
   -2.0348    0.9229    0.1298 C   0  0  0  0  0  0  0  0  0  0  0  0
    2.6342   -1.4058    0.7399 H   0  0  0  0  0  0  0  0  0  0  0  0
    2.5156   -1.4132   -1.0665 H   0  0  0  0  0  0  0  0  0  0  0  0
    3.5353   -0.1767   -0.2314 H   0  0  0  0  0  0  0  0  0  0  0  0
    2.3042    2.1571   -0.1601 H   0  0  0  0  0  0  0  0  0  0  0  0
   -0.1265    3.0157   -0.0041 H   0  0  0  0  0  0  0  0  0  0  0  0
    0.0603   -2.3897    0.0058 H   0  0  0  0  0  0  0  0  0  0  0  0
   -2.4335   -2.4783    0.1699 H   0  0  0  0  0  0  0  0  0  0  0  0
   -3.7580   -0.3732    0.2482 H   0  0  0  0  0  0  0  0  0  0  0  0
   -2.6024    1.8439    0.1633 H   0  0  0  0  0  0  0  0  0  0  0  0
  1  2  1  0
  2  6  1  0
  2  3  2  0
  3  4  1  0
  4  5  1  0
  5 10  1  0
  5  6  2  0
  6  7  1  0
  7  8  2  0
  8  9  1  0
  9 10  2  0
  1 11  1  0
  1 12  1  0
  1 13  1  0
  3 14  1  0
  4 15  1  0
  7 16  1  0
  8 17  1  0
  9 18  1  0
 10 19  1  0
M  END
$$$$
