Oc1c(cccc2O)c2ccc1
     RDKit          3D

 20 21  0  0  0  0  0  0  0  0999 V2000
    2.8463    1.2344   -0.2385 O   0  0  0  0  0  0  0  0  0  0  0  0
    1.8609    0.2523   -0.0933 C   0  0  0  0  0  0  0  0  0  0  0  0
    0.4670    0.5364   -0.0768 C   0  0  0  0  0  0  0  0  0  0  0  0
   -0.0235    1.8524   -0.2084 C   0  0  0  0  0  0  0  0  0  0  0  0
   -1.3919    2.1077   -0.1895 C   0  0  0  0  0  0  0  0  0  0  0  0
   -2.2998    1.0663   -0.0403 C   0  0  0  0  0  0  0  0  0  0  0  0
   -1.8609   -0.2523    0.0933 C   0  0  0  0  0  0  0  0  0  0  0  0
   -2.8463   -1.2344    0.2385 O   0  0  0  0  0  0  0  0  0  0  0  0
   -0.4670   -0.5364    0.0768 C   0  0  0  0  0  0  0  0  0  0  0  0
    0.0235   -1.8524    0.2084 C   0  0  0  0  0  0  0  0  0  0  0  0
    1.3919   -2.1077    0.1895 C   0  0  0  0  0  0  0  0  0  0  0  0
    2.2998   -1.0663    0.0403 C   0  0  0  0  0  0  0  0  0  0  0  0
    2.6675    2.2218   -0.3438 H   0  0  0  0  0  0  0  0  0  0  0  0
    0.6258    2.7041   -0.3271 H   0  0  0  0  0  0  0  0  0  0  0  0
   -1.7522    3.1236   -0.2917 H   0  0  0  0  0  0  0  0  0  0  0  0
   -3.3603    1.2853   -0.0281 H   0  0  0  0  0  0  0  0  0  0  0  0
   -2.6675   -2.2218    0.3438 H   0  0  0  0  0  0  0  0  0  0  0  0
   -0.6258   -2.7041    0.3271 H   0  0  0  0  0  0  0  0  0  0  0  0
    1.7522   -3.1236    0.2917 H   0  0  0  0  0  0  0  0  0  0  0  0
    3.3603   -1.2853    0.0281 H   0  0  0  0  0  0  0  0  0  0  0  0
  1  2  1  0
  2 12  2  0
  2  3  1  0
  3  4  2  0
  3  9  1  0
  4  5  1  0
  5  6  2  0
  6  7  1  0
  7  9  2  0
  7  8  1  0
  9 10  1  0
 10 11  2  0
 11 12  1  0
  1 13  1  0
  4 14  1  0
  5 15  1  0
  6 16  1  0
  8 17  1  0
 10 18  1  0
 11 19  1  0
 12 20  1  0
M  END
$$$$
