O=C(c(cccc1)c1C(OCC(C)C)=O)OCC(C)C
     RDKit          3D

 42 42  0  0  0  0  0  0  0  0999 V2000
    2.7823   -1.4743   -1.8567 O   0  0  0  0  0  0  0  0  0  0  0  0
    1.8294   -1.5129   -1.0301 C   0  0  0  0  0  0  0  0  0  0  0  0
    0.5436   -2.1381   -1.4202 C   0  0  0  0  0  0  0  0  0  0  0  0
    0.5735   -3.2170   -2.3242 C   0  0  0  0  0  0  0  0  0  0  0  0
   -0.5920   -3.9163   -2.6402 C   0  0  0  0  0  0  0  0  0  0  0  0
   -1.8042   -3.5532   -2.0581 C   0  0  0  0  0  0  0  0  0  0  0  0
   -1.8609   -2.4742   -1.1755 C   0  0  0  0  0  0  0  0  0  0  0  0
   -0.7028   -1.7409   -0.8616 C   0  0  0  0  0  0  0  0  0  0  0  0
   -0.8562   -0.5415   -0.0111 C   0  0  0  0  0  0  0  0  0  0  0  0
   -1.7880   -0.5533    1.0337 O   0  0  0  0  0  0  0  0  0  0  0  0
   -2.0657    0.5821    1.8524 C   0  0  0  0  0  0  0  0  0  0  0  0
   -2.9270    1.6130    1.0991 C   0  0  0  0  0  0  0  0  0  0  0  0
   -3.1563    2.8530    1.9704 C   0  0  0  0  0  0  0  0  0  0  0  0
   -4.2697    1.0044    0.6742 C   0  0  0  0  0  0  0  0  0  0  0  0
   -0.1866    0.4991   -0.2549 O   0  0  0  0  0  0  0  0  0  0  0  0
    2.0048   -1.0255    0.2715 O   0  0  0  0  0  0  0  0  0  0  0  0
    3.2065   -0.4138    0.7417 C   0  0  0  0  0  0  0  0  0  0  0  0
    3.1366    1.1202    0.6170 C   0  0  0  0  0  0  0  0  0  0  0  0
    3.1433    1.5735   -0.8488 C   0  0  0  0  0  0  0  0  0  0  0  0
    4.3057    1.7667    1.3704 C   0  0  0  0  0  0  0  0  0  0  0  0
    1.5084   -3.5418   -2.7644 H   0  0  0  0  0  0  0  0  0  0  0  0
   -0.5519   -4.7510   -3.3281 H   0  0  0  0  0  0  0  0  0  0  0  0
   -2.7056   -4.1013   -2.3006 H   0  0  0  0  0  0  0  0  0  0  0  0
   -2.8209   -2.1912   -0.7608 H   0  0  0  0  0  0  0  0  0  0  0  0
   -2.6074    0.2369    2.7592 H   0  0  0  0  0  0  0  0  0  0  0  0
   -1.1105    1.0432    2.1880 H   0  0  0  0  0  0  0  0  0  0  0  0
   -2.3860    1.9361    0.1833 H   0  0  0  0  0  0  0  0  0  0  0  0
   -3.7013    2.5840    2.9009 H   0  0  0  0  0  0  0  0  0  0  0  0
   -3.7494    3.6092    1.4130 H   0  0  0  0  0  0  0  0  0  0  0  0
   -2.1830    3.3132    2.2449 H   0  0  0  0  0  0  0  0  0  0  0  0
   -4.1049    0.1436   -0.0080 H   0  0  0  0  0  0  0  0  0  0  0  0
   -4.8412    0.6560    1.5614 H   0  0  0  0  0  0  0  0  0  0  0  0
   -4.8772    1.7589    0.1303 H   0  0  0  0  0  0  0  0  0  0  0  0
    4.0982   -0.8202    0.2150 H   0  0  0  0  0  0  0  0  0  0  0  0
    3.3136   -0.6802    1.8150 H   0  0  0  0  0  0  0  0  0  0  0  0
    2.1914    1.4701    1.0881 H   0  0  0  0  0  0  0  0  0  0  0  0
    2.2352    1.2123   -1.3730 H   0  0  0  0  0  0  0  0  0  0  0  0
    4.0440    1.1901   -1.3745 H   0  0  0  0  0  0  0  0  0  0  0  0
    3.1411    2.6829   -0.9074 H   0  0  0  0  0  0  0  0  0  0  0  0
    5.2771    1.4422    0.9388 H   0  0  0  0  0  0  0  0  0  0  0  0
    4.2766    1.4815    2.4438 H   0  0  0  0  0  0  0  0  0  0  0  0
    4.2376    2.8740    1.3096 H   0  0  0  0  0  0  0  0  0  0  0  0
  1  2  2  0
  2  3  1  0
  2 16  1  0
  3  4  2  0
  3  8  1  0
  4  5  1  0
  5  6  2  0
  6  7  1  0
  7  8  2  0
  8  9  1  0
  9 15  2  0
  9 10  1  0
 10 11  1  0
 11 12  1  0
 12 14  1  0
 12 13  1  0
 16 17  1  0
 17 18  1  0
 18 20  1  0
 18 19  1  0
  4 21  1  0
  5 22  1  0
  6 23  1  0
  7 24  1  0
 11 25  1  0
 11 26  1  0
 12 27  1  0
 13 28  1  0
 13 29  1  0
 13 30  1  0
 14 31  1  0
 14 32  1  0
 14 33  1  0
 17 34  1  0
 17 35  1  0
 18 36  1  0
 19 37  1  0
 19 38  1  0
 19 39  1  0
 20 40  1  0
 20 41  1  0
 20 42  1  0
M  END
$$$$
