O=C(c2c1cccc2)c(cccc3)c3C1=O
     RDKit          3D

 24 26  0  0  0  0  0  0  0  0999 V2000
    0.0232    2.5918    0.7833 O   0  0  0  0  0  0  0  0  0  0  0  0
    0.0124    1.3838    0.4182 C   0  0  0  0  0  0  0  0  0  0  0  0
    1.2901    0.6600    0.2185 C   0  0  0  0  0  0  0  0  0  0  0  0
    1.2780   -0.6917   -0.1900 C   0  0  0  0  0  0  0  0  0  0  0  0
    2.4970   -1.3693   -0.3766 C   0  0  0  0  0  0  0  0  0  0  0  0
    3.7108   -0.7134   -0.1604 C   0  0  0  0  0  0  0  0  0  0  0  0
    3.7227    0.6218    0.2431 C   0  0  0  0  0  0  0  0  0  0  0  0
    2.5210    1.3074    0.4324 C   0  0  0  0  0  0  0  0  0  0  0  0
   -1.2780    0.6917    0.1900 C   0  0  0  0  0  0  0  0  0  0  0  0
   -2.4970    1.3693    0.3766 C   0  0  0  0  0  0  0  0  0  0  0  0
   -3.7108    0.7134    0.1604 C   0  0  0  0  0  0  0  0  0  0  0  0
   -3.7227   -0.6218   -0.2431 C   0  0  0  0  0  0  0  0  0  0  0  0
   -2.5210   -1.3074   -0.4324 C   0  0  0  0  0  0  0  0  0  0  0  0
   -1.2901   -0.6600   -0.2185 C   0  0  0  0  0  0  0  0  0  0  0  0
   -0.0124   -1.3838   -0.4182 C   0  0  0  0  0  0  0  0  0  0  0  0
   -0.0232   -2.5918   -0.7833 O   0  0  0  0  0  0  0  0  0  0  0  0
    2.5130   -2.4058   -0.6894 H   0  0  0  0  0  0  0  0  0  0  0  0
    4.6441   -1.2418   -0.3062 H   0  0  0  0  0  0  0  0  0  0  0  0
    4.6654    1.1270    0.4097 H   0  0  0  0  0  0  0  0  0  0  0  0
    2.5556    2.3433    0.7458 H   0  0  0  0  0  0  0  0  0  0  0  0
   -2.5130    2.4058    0.6894 H   0  0  0  0  0  0  0  0  0  0  0  0
   -4.6441    1.2418    0.3062 H   0  0  0  0  0  0  0  0  0  0  0  0
   -4.6654   -1.1270   -0.4097 H   0  0  0  0  0  0  0  0  0  0  0  0
   -2.5556   -2.3433   -0.7458 H   0  0  0  0  0  0  0  0  0  0  0  0
  1  2  2  0
  2  3  1  0
  2  9  1  0
  3  8  1  0
  3  4  2  0
  4 15  1  0
  4  5  1  0
  5  6  2  0
  6  7  1  0
  7  8  2  0
  9 10  2  0
  9 14  1  0
 10 11  1  0
 11 12  2  0
 12 13  1  0
 13 14  2  0
 14 15  1  0
 15 16  2  0
  5 17  1  0
  6 18  1  0
  7 19  1  0
  8 20  1  0
 10 21  1  0
 11 22  1  0
 12 23  1  0
 13 24  1  0
M  END
$$$$
