O=C(OCCCC)c1ccccc1C(OCCCC)=O
     RDKit          3D

 42 42  0  0  0  0  0  0  0  0999 V2000
    0.8572    0.1570    1.2559 O   0  0  0  0  0  0  0  0  0  0  0  0
    1.3399   -0.1887    0.1425 C   0  0  0  0  0  0  0  0  0  0  0  0
    2.4513    0.4812   -0.3858 O   0  0  0  0  0  0  0  0  0  0  0  0
    3.1236    1.5437    0.2891 C   0  0  0  0  0  0  0  0  0  0  0  0
    4.0330    0.9879    1.3886 C   0  0  0  0  0  0  0  0  0  0  0  0
    4.7625    2.1165    2.1241 C   0  0  0  0  0  0  0  0  0  0  0  0
    5.7170    1.5614    3.1767 C   0  0  0  0  0  0  0  0  0  0  0  0
    0.7698   -1.3395   -0.5920 C   0  0  0  0  0  0  0  0  0  0  0  0
    1.6664   -2.2209   -1.2204 C   0  0  0  0  0  0  0  0  0  0  0  0
    1.2070   -3.3826   -1.8414 C   0  0  0  0  0  0  0  0  0  0  0  0
   -0.1534   -3.6799   -1.8492 C   0  0  0  0  0  0  0  0  0  0  0  0
   -1.0637   -2.8040   -1.2557 C   0  0  0  0  0  0  0  0  0  0  0  0
   -0.6256   -1.6182   -0.6367 C   0  0  0  0  0  0  0  0  0  0  0  0
   -1.6547   -0.6856   -0.1174 C   0  0  0  0  0  0  0  0  0  0  0  0
   -2.8950   -1.1909    0.2941 O   0  0  0  0  0  0  0  0  0  0  0  0
   -3.9815   -0.3780    0.7380 C   0  0  0  0  0  0  0  0  0  0  0  0
   -4.9106   -0.0086   -0.4237 C   0  0  0  0  0  0  0  0  0  0  0  0
   -4.2917    1.0374   -1.3609 C   0  0  0  0  0  0  0  0  0  0  0  0
   -5.2972    1.4995   -2.4142 C   0  0  0  0  0  0  0  0  0  0  0  0
   -1.4375    0.5561   -0.0957 O   0  0  0  0  0  0  0  0  0  0  0  0
    2.3833    2.2582    0.7113 H   0  0  0  0  0  0  0  0  0  0  0  0
    3.7448    2.0902   -0.4532 H   0  0  0  0  0  0  0  0  0  0  0  0
    3.4253    0.4098    2.1176 H   0  0  0  0  0  0  0  0  0  0  0  0
    4.7744    0.2985    0.9267 H   0  0  0  0  0  0  0  0  0  0  0  0
    4.0206    2.7775    2.6229 H   0  0  0  0  0  0  0  0  0  0  0  0
    5.3438    2.7260    1.3983 H   0  0  0  0  0  0  0  0  0  0  0  0
    6.4955    0.9305    2.6971 H   0  0  0  0  0  0  0  0  0  0  0  0
    6.2166    2.4013    3.7064 H   0  0  0  0  0  0  0  0  0  0  0  0
    5.1618    0.9555    3.9238 H   0  0  0  0  0  0  0  0  0  0  0  0
    2.7322   -2.0280   -1.2012 H   0  0  0  0  0  0  0  0  0  0  0  0
    1.9101   -4.0608   -2.3080 H   0  0  0  0  0  0  0  0  0  0  0  0
   -0.5075   -4.5833   -2.3319 H   0  0  0  0  0  0  0  0  0  0  0  0
   -2.1189   -3.0437   -1.3066 H   0  0  0  0  0  0  0  0  0  0  0  0
   -4.5675   -0.9657    1.4754 H   0  0  0  0  0  0  0  0  0  0  0  0
   -3.6157    0.5308    1.2652 H   0  0  0  0  0  0  0  0  0  0  0  0
   -5.8513    0.4016    0.0040 H   0  0  0  0  0  0  0  0  0  0  0  0
   -5.1628   -0.9270   -1.0021 H   0  0  0  0  0  0  0  0  0  0  0  0
   -3.9591    1.9201   -0.7718 H   0  0  0  0  0  0  0  0  0  0  0  0
   -3.4116    0.6029   -1.8852 H   0  0  0  0  0  0  0  0  0  0  0  0
   -6.1877    1.9513   -1.9268 H   0  0  0  0  0  0  0  0  0  0  0  0
   -5.6179    0.6434   -3.0480 H   0  0  0  0  0  0  0  0  0  0  0  0
   -4.8252    2.2671   -3.0669 H   0  0  0  0  0  0  0  0  0  0  0  0
  1  2  2  0
  2  8  1  0
  2  3  1  0
  3  4  1  0
  4  5  1  0
  5  6  1  0
  6  7  1  0
  8  9  2  0
  8 13  1  0
  9 10  1  0
 10 11  2  0
 11 12  1  0
 12 13  2  0
 13 14  1  0
 14 20  2  0
 14 15  1  0
 15 16  1  0
 16 17  1  0
 17 18  1  0
 18 19  1  0
  4 21  1  0
  4 22  1  0
  5 23  1  0
  5 24  1  0
  6 25  1  0
  6 26  1  0
  7 27  1  0
  7 28  1  0
  7 29  1  0
  9 30  1  0
 10 31  1  0
 11 32  1  0
 12 33  1  0
 16 34  1  0
 16 35  1  0
 17 36  1  0
 17 37  1  0
 18 38  1  0
 18 39  1  0
 19 40  1  0
 19 41  1  0
 19 42  1  0
M  END
$$$$
