Clc(cccc1)c1C(c(cc(Cl)cc3)c3NC2=O)=NC2O
     RDKit          3D

 31 33  0  0  1  0  0  0  0  0999 V2000
   -2.4923    2.1069   -1.6547 Cl  0  0  0  0  0  0  0  0  0  0  0  0
   -2.7118    0.7326   -0.5748 C   0  0  0  0  0  0  0  0  0  0  0  0
   -4.0059    0.2194   -0.4208 C   0  0  0  0  0  0  0  0  0  0  0  0
   -4.2315   -0.9018    0.3799 C   0  0  0  0  0  0  0  0  0  0  0  0
   -3.1642   -1.5221    1.0296 C   0  0  0  0  0  0  0  0  0  0  0  0
   -1.8689   -1.0201    0.8845 C   0  0  0  0  0  0  0  0  0  0  0  0
   -1.6251    0.1130    0.0866 C   0  0  0  0  0  0  0  0  0  0  0  0
   -0.2373    0.6259   -0.0310 C   0  0  0  0  0  0  0  0  0  0  0  0
    0.8843   -0.3298   -0.2752 C   0  0  0  0  0  0  0  0  0  0  0  0
    0.6765   -1.3788   -1.1918 C   0  0  0  0  0  0  0  0  0  0  0  0
    1.6585   -2.3477   -1.4073 C   0  0  0  0  0  0  0  0  0  0  0  0
    1.3743   -3.6460   -2.5523 Cl  0  0  0  0  0  0  0  0  0  0  0  0
    2.8607   -2.2892   -0.7041 C   0  0  0  0  0  0  0  0  0  0  0  0
    3.0879   -1.2572    0.2060 C   0  0  0  0  0  0  0  0  0  0  0  0
    2.1223   -0.2604    0.4199 C   0  0  0  0  0  0  0  0  0  0  0  0
    2.4155    0.7722    1.3772 N   0  0  0  0  0  0  0  0  0  0  0  0
    2.0815    2.1503    1.1802 C   0  0  0  0  0  0  0  0  0  0  0  0
    2.4834    3.0088    2.0118 O   0  0  0  0  0  0  0  0  0  0  0  0
   -0.0395    1.9074    0.0845 N   0  0  0  0  0  0  0  0  0  0  0  0
    1.2558    2.5700    0.0037 C   0  0  1  0  0  0  0  0  0  0  0  0
    1.0679    3.9597    0.0139 O   0  0  0  0  0  0  0  0  0  0  0  0
   -4.8398    0.6855   -0.9303 H   0  0  0  0  0  0  0  0  0  0  0  0
   -5.2343   -1.2930    0.4928 H   0  0  0  0  0  0  0  0  0  0  0  0
   -3.3406   -2.3921    1.6488 H   0  0  0  0  0  0  0  0  0  0  0  0
   -1.0556   -1.5101    1.4060 H   0  0  0  0  0  0  0  0  0  0  0  0
   -0.2551   -1.4466   -1.7409 H   0  0  0  0  0  0  0  0  0  0  0  0
    3.6215   -3.0430   -0.8622 H   0  0  0  0  0  0  0  0  0  0  0  0
    4.0288   -1.2254    0.7412 H   0  0  0  0  0  0  0  0  0  0  0  0
    3.0654    0.5451    2.1640 H   0  0  0  0  0  0  0  0  0  0  0  0
    1.7796    2.2745   -0.9347 H   0  0  0  0  0  0  0  0  0  0  0  0
    0.6379    4.1918   -0.8505 H   0  0  0  0  0  0  0  0  0  0  0  0
  1  2  1  0
  2  3  2  0
  2  7  1  0
  3  4  1  0
  4  5  2  0
  5  6  1  0
  6  7  2  0
  7  8  1  0
  8  9  1  0
  8 19  2  0
  9 10  2  0
  9 15  1  0
 10 11  1  0
 11 13  2  0
 11 12  1  0
 13 14  1  0
 14 15  2  0
 15 16  1  0
 16 17  1  0
 17 20  1  0
 17 18  2  0
 19 20  1  0
 20 21  1  0
  3 22  1  0
  4 23  1  0
  5 24  1  0
  6 25  1  0
 10 26  1  0
 13 27  1  0
 14 28  1  0
 16 29  1  0
 20 30  1  6
 21 31  1  0
M  END
$$$$
