c12c(cccn3)c3ccc1cccc2
     RDKit          3D

 23 25  0  0  0  0  0  0  0  0999 V2000
   -0.5308   -0.3487    0.0503 C   0  0  0  0  0  0  0  0  0  0  0  0
    0.8860   -0.1793    0.0966 C   0  0  0  0  0  0  0  0  0  0  0  0
    1.8033   -1.2553    0.0731 C   0  0  0  0  0  0  0  0  0  0  0  0
    3.1772   -1.0166    0.1213 C   0  0  0  0  0  0  0  0  0  0  0  0
    3.6464    0.2915    0.1930 C   0  0  0  0  0  0  0  0  0  0  0  0
    2.7697    1.3260    0.2157 N   0  0  0  0  0  0  0  0  0  0  0  0
    1.4236    1.1338    0.1704 C   0  0  0  0  0  0  0  0  0  0  0  0
    0.5813    2.2449    0.1974 C   0  0  0  0  0  0  0  0  0  0  0  0
   -0.7992    2.0848    0.1526 C   0  0  0  0  0  0  0  0  0  0  0  0
   -1.3647    0.8059    0.0796 C   0  0  0  0  0  0  0  0  0  0  0  0
   -2.7618    0.6718    0.0355 C   0  0  0  0  0  0  0  0  0  0  0  0
   -3.3468   -0.5905   -0.0373 C   0  0  0  0  0  0  0  0  0  0  0  0
   -2.5465   -1.7297   -0.0668 C   0  0  0  0  0  0  0  0  0  0  0  0
   -1.1546   -1.6179   -0.0239 C   0  0  0  0  0  0  0  0  0  0  0  0
    1.4921   -2.2854    0.0182 H   0  0  0  0  0  0  0  0  0  0  0  0
    3.8755   -1.8437    0.1031 H   0  0  0  0  0  0  0  0  0  0  0  0
    4.7098    0.4861    0.2307 H   0  0  0  0  0  0  0  0  0  0  0  0
    0.9989    3.2429    0.2538 H   0  0  0  0  0  0  0  0  0  0  0  0
   -1.4289    2.9666    0.1752 H   0  0  0  0  0  0  0  0  0  0  0  0
   -3.4025    1.5457    0.0574 H   0  0  0  0  0  0  0  0  0  0  0  0
   -4.4245   -0.6861   -0.0710 H   0  0  0  0  0  0  0  0  0  0  0  0
   -3.0072   -2.7077   -0.1235 H   0  0  0  0  0  0  0  0  0  0  0  0
   -0.5963   -2.5390   -0.0501 H   0  0  0  0  0  0  0  0  0  0  0  0
  1  2  1  0
  1 10  2  0
  1 14  1  0
  2  3  2  0
  2  7  1  0
  3  4  1  0
  4  5  2  0
  5  6  1  0
  6  7  2  0
  7  8  1  0
  8  9  2  0
  9 10  1  0
 10 11  1  0
 11 12  2  0
 12 13  1  0
 13 14  2  0
  3 15  1  0
  4 16  1  0
  5 17  1  0
  8 18  1  0
  9 19  1  0
 11 20  1  0
 12 21  1  0
 13 22  1  0
 14 23  1  0
M  END
$$$$
