c1(c(cccc3)c3cc2)c2cccc1
     RDKit          3D

 24 26  0  0  0  0  0  0  0  0999 V2000
    0.6917   -0.3722   -0.1422 C   0  0  0  0  0  0  0  0  0  0  0  0
   -0.7079   -0.3386    0.1465 C   0  0  0  0  0  0  0  0  0  0  0  0
   -1.4921   -1.5076    0.3099 C   0  0  0  0  0  0  0  0  0  0  0  0
   -2.8577   -1.4213    0.5915 C   0  0  0  0  0  0  0  0  0  0  0  0
   -3.4746   -0.1798    0.7171 C   0  0  0  0  0  0  0  0  0  0  0  0
   -2.7307    0.9874    0.5620 C   0  0  0  0  0  0  0  0  0  0  0  0
   -1.3567    0.9224    0.2786 C   0  0  0  0  0  0  0  0  0  0  0  0
   -0.6325    2.1097    0.1276 C   0  0  0  0  0  0  0  0  0  0  0  0
    0.7278    2.0770   -0.1530 C   0  0  0  0  0  0  0  0  0  0  0  0
    1.3972    0.8563   -0.2894 C   0  0  0  0  0  0  0  0  0  0  0  0
    2.7726    0.8552   -0.5731 C   0  0  0  0  0  0  0  0  0  0  0  0
    3.4626   -0.3464   -0.7139 C   0  0  0  0  0  0  0  0  0  0  0  0
    2.7899   -1.5569   -0.5734 C   0  0  0  0  0  0  0  0  0  0  0  0
    1.4219   -1.5776   -0.2912 C   0  0  0  0  0  0  0  0  0  0  0  0
   -1.0828   -2.5003    0.2268 H   0  0  0  0  0  0  0  0  0  0  0  0
   -3.4412   -2.3251    0.7131 H   0  0  0  0  0  0  0  0  0  0  0  0
   -4.5332   -0.1218    0.9354 H   0  0  0  0  0  0  0  0  0  0  0  0
   -3.2302    1.9438    0.6638 H   0  0  0  0  0  0  0  0  0  0  0  0
   -1.1223    3.0715    0.2274 H   0  0  0  0  0  0  0  0  0  0  0  0
    1.2608    3.0143   -0.2642 H   0  0  0  0  0  0  0  0  0  0  0  0
    3.3151    1.7866   -0.6863 H   0  0  0  0  0  0  0  0  0  0  0  0
    4.5227   -0.3393   -0.9326 H   0  0  0  0  0  0  0  0  0  0  0  0
    3.3316   -2.4877   -0.6839 H   0  0  0  0  0  0  0  0  0  0  0  0
    0.9678   -2.5496   -0.1962 H   0  0  0  0  0  0  0  0  0  0  0  0
  1  2  1  0
  1 10  2  0
  1 14  1  0
  2  3  2  0
  2  7  1  0
  3  4  1  0
  4  5  2  0
  5  6  1  0
  6  7  2  0
  7  8  1  0
  8  9  2  0
  9 10  1  0
 10 11  1  0
 11 12  2  0
 12 13  1  0
 13 14  2  0
  3 15  1  0
  4 16  1  0
  5 17  1  0
  6 18  1  0
  8 19  1  0
  9 20  1  0
 11 21  1  0
 12 22  1  0
 13 23  1  0
 14 24  1  0
M  END
$$$$
