O=C(O)Cc(c(Cl)ccc1Cl)c1Cl
     RDKit          3D

 18 18  0  0  0  0  0  0  0  0999 V2000
   -2.1202    0.2199   -2.0639 O   0  0  0  0  0  0  0  0  0  0  0  0
   -2.3156   -0.0132   -0.8419 C   0  0  0  0  0  0  0  0  0  0  0  0
   -3.2476   -0.9793   -0.4730 O   0  0  0  0  0  0  0  0  0  0  0  0
   -1.5427    0.7464    0.1953 C   0  0  0  0  0  0  0  0  0  0  0  0
   -0.0783    0.3586    0.1593 C   0  0  0  0  0  0  0  0  0  0  0  0
    0.8500    1.1194   -0.5924 C   0  0  0  0  0  0  0  0  0  0  0  0
    0.3707    2.5318   -1.5312 Cl  0  0  0  0  0  0  0  0  0  0  0  0
    2.1976    0.7508   -0.6230 C   0  0  0  0  0  0  0  0  0  0  0  0
    2.6404   -0.3687    0.0765 C   0  0  0  0  0  0  0  0  0  0  0  0
    1.7407   -1.1406    0.8127 C   0  0  0  0  0  0  0  0  0  0  0  0
    2.3517   -2.5513    1.6694 Cl  0  0  0  0  0  0  0  0  0  0  0  0
    0.3793   -0.7877    0.8574 C   0  0  0  0  0  0  0  0  0  0  0  0
   -0.7374   -1.7938    1.7863 Cl  0  0  0  0  0  0  0  0  0  0  0  0
   -3.4379   -1.1857    0.5001 H   0  0  0  0  0  0  0  0  0  0  0  0
   -1.9673    0.5676    1.2052 H   0  0  0  0  0  0  0  0  0  0  0  0
   -1.6789    1.8329    0.0193 H   0  0  0  0  0  0  0  0  0  0  0  0
    2.9076    1.3333   -1.1967 H   0  0  0  0  0  0  0  0  0  0  0  0
    3.6879   -0.6401    0.0408 H   0  0  0  0  0  0  0  0  0  0  0  0
  1  2  2  0
  2  4  1  0
  2  3  1  0
  4  5  1  0
  5  6  2  0
  5 12  1  0
  6  8  1  0
  6  7  1  0
  8  9  2  0
  9 10  1  0
 10 12  2  0
 10 11  1  0
 12 13  1  0
  3 14  1  0
  4 15  1  0
  4 16  1  0
  8 17  1  0
  9 18  1  0
M  END
$$$$
