O=C(O2)c1ccccc1C2=O
     RDKit          3D

 15 16  0  0  0  0  0  0  0  0999 V2000
    2.7035   -1.8221    0.0569 O   0  0  0  0  0  0  0  0  0  0  0  0
    2.0768   -0.7309    0.0316 C   0  0  0  0  0  0  0  0  0  0  0  0
    2.6859    0.5229    0.0142 O   0  0  0  0  0  0  0  0  0  0  0  0
    0.6272   -0.5784    0.0160 C   0  0  0  0  0  0  0  0  0  0  0  0
   -0.3973   -1.5231    0.0241 C   0  0  0  0  0  0  0  0  0  0  0  0
   -1.7239   -1.0551    0.0039 C   0  0  0  0  0  0  0  0  0  0  0  0
   -1.9937    0.3313   -0.0236 C   0  0  0  0  0  0  0  0  0  0  0  0
   -0.9394    1.2628   -0.0312 C   0  0  0  0  0  0  0  0  0  0  0  0
    0.3645    0.7715   -0.0108 C   0  0  0  0  0  0  0  0  0  0  0  0
    1.6511    1.4567   -0.0118 C   0  0  0  0  0  0  0  0  0  0  0  0
    1.8228    2.7034   -0.0329 O   0  0  0  0  0  0  0  0  0  0  0  0
   -0.1803   -2.5831    0.0452 H   0  0  0  0  0  0  0  0  0  0  0  0
   -2.5431   -1.7623    0.0095 H   0  0  0  0  0  0  0  0  0  0  0  0
   -3.0183    0.6795   -0.0389 H   0  0  0  0  0  0  0  0  0  0  0  0
   -1.1358    2.3269   -0.0522 H   0  0  0  0  0  0  0  0  0  0  0  0
  1  2  2  0
  2  4  1  0
  2  3  1  0
  3 10  1  0
  4  5  2  0
  4  9  1  0
  5  6  1  0
  6  7  2  0
  7  8  1  0
  8  9  2  0
  9 10  1  0
 10 11  2  0
  5 12  1  0
  6 13  1  0
  7 14  1  0
  8 15  1  0
M  END
$$$$
