CCCCOc2cc(C(NCCN(CC)CC)=O)c1ccccc1n2
     RDKit          3D

 54 55  0  0  0  0  0  0  0  0999 V2000
    6.4342    1.5956   -2.2931 C   0  0  0  0  0  0  0  0  0  0  0  0
    6.0275    1.9091   -0.8565 C   0  0  0  0  0  0  0  0  0  0  0  0
    6.2063    0.6842    0.0497 C   0  0  0  0  0  0  0  0  0  0  0  0
    5.8105    0.9906    1.4995 C   0  0  0  0  0  0  0  0  0  0  0  0
    4.4405    1.3807    1.5944 O   0  0  0  0  0  0  0  0  0  0  0  0
    3.3681    0.4957    1.4342 C   0  0  0  0  0  0  0  0  0  0  0  0
    2.0655    0.9949    1.4342 C   0  0  0  0  0  0  0  0  0  0  0  0
    0.9760    0.1281    1.2590 C   0  0  0  0  0  0  0  0  0  0  0  0
   -0.3800    0.7170    1.1959 C   0  0  0  0  0  0  0  0  0  0  0  0
   -1.2718    0.3765    0.1244 N   0  0  0  0  0  0  0  0  0  0  0  0
   -2.6418    0.8821    0.0529 C   0  0  0  0  0  0  0  0  0  0  0  0
   -3.5624   -0.1757   -0.5626 C   0  0  0  0  0  0  0  0  0  0  0  0
   -4.9664    0.2972   -0.5491 N   0  0  0  0  0  0  0  0  0  0  0  0
   -5.9099   -0.8364   -0.4108 C   0  0  0  0  0  0  0  0  0  0  0  0
   -6.1229   -1.1717    1.0633 C   0  0  0  0  0  0  0  0  0  0  0  0
   -5.2700    1.1007   -1.7560 C   0  0  0  0  0  0  0  0  0  0  0  0
   -6.3164    2.1638   -1.4344 C   0  0  0  0  0  0  0  0  0  0  0  0
   -0.7258    1.5657    2.0626 O   0  0  0  0  0  0  0  0  0  0  0  0
    1.2171   -1.2635    1.1305 C   0  0  0  0  0  0  0  0  0  0  0  0
    0.1788   -2.2157    1.0406 C   0  0  0  0  0  0  0  0  0  0  0  0
    0.4749   -3.5755    0.9092 C   0  0  0  0  0  0  0  0  0  0  0  0
    1.8013   -4.0082    0.8820 C   0  0  0  0  0  0  0  0  0  0  0  0
    2.8412   -3.0846    0.9990 C   0  0  0  0  0  0  0  0  0  0  0  0
    2.5590   -1.7205    1.1333 C   0  0  0  0  0  0  0  0  0  0  0  0
    3.5810   -0.8385    1.2819 N   0  0  0  0  0  0  0  0  0  0  0  0
    7.5014    1.2918   -2.3364 H   0  0  0  0  0  0  0  0  0  0  0  0
    6.2965    2.4990   -2.9241 H   0  0  0  0  0  0  0  0  0  0  0  0
    5.8034    0.7773   -2.7019 H   0  0  0  0  0  0  0  0  0  0  0  0
    4.9636    2.2313   -0.8510 H   0  0  0  0  0  0  0  0  0  0  0  0
    6.6525    2.7477   -0.4803 H   0  0  0  0  0  0  0  0  0  0  0  0
    5.5968   -0.1610   -0.3357 H   0  0  0  0  0  0  0  0  0  0  0  0
    7.2726    0.3692    0.0359 H   0  0  0  0  0  0  0  0  0  0  0  0
    6.4425    1.8207    1.8811 H   0  0  0  0  0  0  0  0  0  0  0  0
    5.9984    0.1032    2.1425 H   0  0  0  0  0  0  0  0  0  0  0  0
    1.9074    2.0617    1.5420 H   0  0  0  0  0  0  0  0  0  0  0  0
   -0.8822   -0.1280   -0.7044 H   0  0  0  0  0  0  0  0  0  0  0  0
   -2.6505    1.8092   -0.5576 H   0  0  0  0  0  0  0  0  0  0  0  0
   -3.0172    1.1271    1.0708 H   0  0  0  0  0  0  0  0  0  0  0  0
   -3.2303   -0.4237   -1.5969 H   0  0  0  0  0  0  0  0  0  0  0  0
   -3.4436   -1.1025    0.0420 H   0  0  0  0  0  0  0  0  0  0  0  0
   -6.9092   -0.5858   -0.8309 H   0  0  0  0  0  0  0  0  0  0  0  0
   -5.5475   -1.7363   -0.9589 H   0  0  0  0  0  0  0  0  0  0  0  0
   -5.1738   -1.4919    1.5404 H   0  0  0  0  0  0  0  0  0  0  0  0
   -6.5156   -0.2820    1.5998 H   0  0  0  0  0  0  0  0  0  0  0  0
   -6.8591   -1.9983    1.1552 H   0  0  0  0  0  0  0  0  0  0  0  0
   -4.3676    1.6377   -2.1238 H   0  0  0  0  0  0  0  0  0  0  0  0
   -5.6251    0.4581   -2.5940 H   0  0  0  0  0  0  0  0  0  0  0  0
   -7.2750    1.6971   -1.1266 H   0  0  0  0  0  0  0  0  0  0  0  0
   -6.5024    2.7895   -2.3331 H   0  0  0  0  0  0  0  0  0  0  0  0
   -5.9522    2.8172   -0.6135 H   0  0  0  0  0  0  0  0  0  0  0  0
   -0.8616   -1.9279    1.0940 H   0  0  0  0  0  0  0  0  0  0  0  0
   -0.3283   -4.2979    0.8376 H   0  0  0  0  0  0  0  0  0  0  0  0
    2.0239   -5.0625    0.7825 H   0  0  0  0  0  0  0  0  0  0  0  0
    3.8674   -3.4317    0.9932 H   0  0  0  0  0  0  0  0  0  0  0  0
  1  2  1  0
  2  3  1  0
  3  4  1  0
  4  5  1  0
  5  6  1  0
  6  7  2  0
  6 25  1  0
  7  8  1  0
  8 19  2  0
  8  9  1  0
  9 10  1  0
  9 18  2  0
 10 11  1  0
 11 12  1  0
 12 13  1  0
 13 14  1  0
 13 16  1  0
 14 15  1  0
 16 17  1  0
 19 20  1  0
 19 24  1  0
 20 21  2  0
 21 22  1  0
 22 23  2  0
 23 24  1  0
 24 25  2  0
  1 26  1  0
  1 27  1  0
  1 28  1  0
  2 29  1  0
  2 30  1  0
  3 31  1  0
  3 32  1  0
  4 33  1  0
  4 34  1  0
  7 35  1  0
 10 36  1  0
 11 37  1  0
 11 38  1  0
 12 39  1  0
 12 40  1  0
 14 41  1  0
 14 42  1  0
 15 43  1  0
 15 44  1  0
 15 45  1  0
 16 46  1  0
 16 47  1  0
 17 48  1  0
 17 49  1  0
 17 50  1  0
 20 51  1  0
 21 52  1  0
 22 53  1  0
 23 54  1  0
M  END
$$$$
