
     RDKit          3D

 54 57  0  0  1  0  0  0  0  0999 V2000
   -2.8919   -0.2908    0.5731 C   0  0  2  0  0  0  0  0  0  0  0  0
   -2.8865    1.0972    1.2474 C   0  0  0  0  0  0  0  0  0  0  0  0
   -4.0711    1.8513    0.6495 C   0  0  0  0  0  0  0  0  0  0  0  0
   -1.5845   -1.1561    0.6579 C   0  0  2  0  0  0  0  0  0  0  0  0
   -0.8969   -1.0163    2.0333 C   0  0  0  0  0  0  0  0  0  0  0  0
    0.5259   -1.4695    2.0543 C   0  0  0  0  0  0  0  0  0  0  0  0
    1.3740   -1.0822    1.0869 C   0  0  0  0  0  0  0  0  0  0  0  0
    2.7960   -0.7221    1.4745 C   0  0  0  0  0  0  0  0  0  0  0  0
    3.0896    0.7799    1.1804 C   0  0  1  0  0  0  0  0  0  0  0  0
    4.0135    0.9274    0.1007 O   0  0  0  0  0  0  0  0  0  0  0  0
    5.3612    0.5607    0.1806 C   0  0  0  0  0  0  0  0  0  0  0  0
    6.2219    0.6769   -1.0303 C   0  0  0  0  0  0  0  0  0  0  0  0
    5.8428    0.0978    1.2503 O   0  0  0  0  0  0  0  0  0  0  0  0
    1.8112    1.5892    0.8626 C   0  0  0  0  0  0  0  0  0  0  0  0
    0.9546    0.9811   -0.2785 C   0  0  0  0  0  0  0  0  0  0  0  0
    0.8711   -0.5795   -0.2683 C   0  0  1  0  0  0  0  0  0  0  0  0
    1.8388   -1.1593   -1.3509 C   0  0  0  0  0  0  0  0  0  0  0  0
   -0.5868   -1.1293   -0.5611 C   0  0  2  0  0  0  0  0  0  0  0  0
   -1.2174   -0.6860   -1.9162 C   0  0  0  0  0  0  0  0  0  0  0  0
   -2.3170    0.3618   -1.8114 C   0  0  0  0  0  0  0  0  0  0  0  0
   -3.4402   -0.0454   -0.8435 C   0  0  1  0  0  0  0  0  0  0  0  0
   -4.2581   -1.2484   -1.3580 C   0  0  0  0  0  0  0  0  0  0  0  0
   -4.3193    1.1488   -0.6344 C   0  0  0  0  0  0  0  0  0  0  0  0
   -5.1345    1.5412   -1.4555 O   0  0  0  0  0  0  0  0  0  0  0  0
   -3.6687   -0.8615    1.1383 H   0  0  0  0  0  0  0  0  0  0  0  0
   -3.0001    1.0157    2.3504 H   0  0  0  0  0  0  0  0  0  0  0  0
   -1.9510    1.6449    1.0149 H   0  0  0  0  0  0  0  0  0  0  0  0
   -3.8160    2.9184    0.4742 H   0  0  0  0  0  0  0  0  0  0  0  0
   -4.9667    1.7675    1.3018 H   0  0  0  0  0  0  0  0  0  0  0  0
   -1.9769   -2.2015    0.6606 H   0  0  0  0  0  0  0  0  0  0  0  0
   -1.4730   -1.5773    2.8009 H   0  0  0  0  0  0  0  0  0  0  0  0
   -0.8634    0.0405    2.3605 H   0  0  0  0  0  0  0  0  0  0  0  0
    0.9175   -1.7770    3.0205 H   0  0  0  0  0  0  0  0  0  0  0  0
    2.9805   -0.9158    2.5546 H   0  0  0  0  0  0  0  0  0  0  0  0
    3.4994   -1.3831    0.9265 H   0  0  0  0  0  0  0  0  0  0  0  0
    3.5428    1.2382    2.0884 H   0  0  0  0  0  0  0  0  0  0  0  0
    6.0723   -0.2148   -1.6747 H   0  0  0  0  0  0  0  0  0  0  0  0
    7.2927    0.7440   -0.7395 H   0  0  0  0  0  0  0  0  0  0  0  0
    5.9461    1.5895   -1.5999 H   0  0  0  0  0  0  0  0  0  0  0  0
    1.1910    1.6405    1.7847 H   0  0  0  0  0  0  0  0  0  0  0  0
    2.0867    2.6334    0.6003 H   0  0  0  0  0  0  0  0  0  0  0  0
   -0.0542    1.4173   -0.1815 H   0  0  0  0  0  0  0  0  0  0  0  0
    1.3475    1.3440   -1.2538 H   0  0  0  0  0  0  0  0  0  0  0  0
    1.8732   -2.2691   -1.2930 H   0  0  0  0  0  0  0  0  0  0  0  0
    1.5537   -0.8820   -2.3821 H   0  0  0  0  0  0  0  0  0  0  0  0
    2.8737   -0.7902   -1.2331 H   0  0  0  0  0  0  0  0  0  0  0  0
   -0.3911   -2.2155   -0.7338 H   0  0  0  0  0  0  0  0  0  0  0  0
   -1.6354   -1.5767   -2.4348 H   0  0  0  0  0  0  0  0  0  0  0  0
   -0.4607   -0.2711   -2.6061 H   0  0  0  0  0  0  0  0  0  0  0  0
   -1.8673    1.3294   -1.5030 H   0  0  0  0  0  0  0  0  0  0  0  0
   -2.7443    0.5282   -2.8256 H   0  0  0  0  0  0  0  0  0  0  0  0
   -5.1457   -1.4230   -0.7122 H   0  0  0  0  0  0  0  0  0  0  0  0
   -4.6136   -1.0641   -2.3945 H   0  0  0  0  0  0  0  0  0  0  0  0
   -3.6454   -2.1737   -1.3522 H   0  0  0  0  0  0  0  0  0  0  0  0
  1  2  1  0
  1  4  1  0
  1 21  1  0
  2  3  1  0
  3 23  1  0
  4  5  1  0
  4 18  1  0
  5  6  1  0
  6  7  2  0
  7  8  1  0
  7 16  1  0
  8  9  1  0
  9 14  1  0
  9 10  1  0
 10 11  1  0
 11 12  1  0
 11 13  2  0
 14 15  1  0
 15 16  1  0
 16 17  1  6
 16 18  1  0
 18 19  1  0
 19 20  1  0
 20 21  1  0
 21 22  1  6
 21 23  1  0
 23 24  2  0
  1 25  1  1
  2 26  1  0
  2 27  1  0
  3 28  1  0
  3 29  1  0
  4 30  1  1
  5 31  1  0
  5 32  1  0
  6 33  1  0
  8 34  1  0
  8 35  1  0
  9 36  1  1
 12 37  1  0
 12 38  1  0
 12 39  1  0
 14 40  1  0
 14 41  1  0
 15 42  1  0
 15 43  1  0
 17 44  1  0
 17 45  1  0
 17 46  1  0
 18 47  1  6
 19 48  1  0
 19 49  1  0
 20 50  1  0
 20 51  1  0
 22 52  1  0
 22 53  1  0
 22 54  1  0
M  END
$$$$
