c1(cccc3)c3Cc2c1cccc2
     RDKit          3D

 23 25  0  0  0  0  0  0  0  0999 V2000
    0.7230    0.4621    0.0967 C   0  0  0  0  0  0  0  0  0  0  0  0
    1.6200    1.5101    0.3055 C   0  0  0  0  0  0  0  0  0  0  0  0
    2.9943    1.2229    0.2710 C   0  0  0  0  0  0  0  0  0  0  0  0
    3.4415   -0.0919    0.0310 C   0  0  0  0  0  0  0  0  0  0  0  0
    2.5179   -1.1306   -0.1764 C   0  0  0  0  0  0  0  0  0  0  0  0
    1.1555   -0.8301   -0.1392 C   0  0  0  0  0  0  0  0  0  0  0  0
    0.0019   -1.7719   -0.3318 C   0  0  0  0  0  0  0  0  0  0  0  0
   -1.1536   -0.8265   -0.1709 C   0  0  0  0  0  0  0  0  0  0  0  0
   -0.7238    0.4644    0.0768 C   0  0  0  0  0  0  0  0  0  0  0  0
   -1.6229    1.5152    0.2610 C   0  0  0  0  0  0  0  0  0  0  0  0
   -2.9966    1.2323    0.1887 C   0  0  0  0  0  0  0  0  0  0  0  0
   -3.4411   -0.0811   -0.0634 C   0  0  0  0  0  0  0  0  0  0  0  0
   -2.5155   -1.1227   -0.2455 C   0  0  0  0  0  0  0  0  0  0  0  0
    1.2708    2.5176    0.4893 H   0  0  0  0  0  0  0  0  0  0  0  0
    3.7137    2.0157    0.4296 H   0  0  0  0  0  0  0  0  0  0  0  0
    4.5026   -0.3032    0.0064 H   0  0  0  0  0  0  0  0  0  0  0  0
    2.8567   -2.1418   -0.3610 H   0  0  0  0  0  0  0  0  0  0  0  0
    0.0141   -2.2145   -1.3502 H   0  0  0  0  0  0  0  0  0  0  0  0
   -0.0112   -2.5530    0.4575 H   0  0  0  0  0  0  0  0  0  0  0  0
   -1.2756    2.5216    0.4543 H   0  0  0  0  0  0  0  0  0  0  0  0
   -3.7176    2.0274    0.3275 H   0  0  0  0  0  0  0  0  0  0  0  0
   -4.5018   -0.2891   -0.1173 H   0  0  0  0  0  0  0  0  0  0  0  0
   -2.8522   -2.1328   -0.4394 H   0  0  0  0  0  0  0  0  0  0  0  0
  1  2  2  0
  1  6  1  0
  1  9  1  0
  2  3  1  0
  3  4  2  0
  4  5  1  0
  5  6  2  0
  6  7  1  0
  7  8  1  0
  8 13  1  0
  8  9  2  0
  9 10  1  0
 10 11  2  0
 11 12  1  0
 12 13  2  0
  2 14  1  0
  3 15  1  0
  4 16  1  0
  5 17  1  0
  7 18  1  0
  7 19  1  0
 10 20  1  0
 11 21  1  0
 12 22  1  0
 13 23  1  0
M  END
$$$$
