
     RDKit          3D

 24 25  0  0  0  0  0  0  0  0999 V2000
    3.3104   -1.5889   -0.5452 O   0  0  0  0  0  0  0  0  0  0  0  0
    2.8106   -0.3026   -0.3613 C   0  0  0  0  0  0  0  0  0  0  0  0
    2.1652    0.0929    0.9355 C   0  0  0  0  0  0  0  0  0  0  0  0
    0.7884    0.6800    0.7025 C   0  0  0  0  0  0  0  0  0  0  0  0
    0.6228    2.0689    0.8509 C   0  0  0  0  0  0  0  0  0  0  0  0
   -0.6172    2.6695    0.6389 C   0  0  0  0  0  0  0  0  0  0  0  0
   -1.7183    1.8993    0.2738 C   0  0  0  0  0  0  0  0  0  0  0  0
   -1.5900    0.5129    0.1173 C   0  0  0  0  0  0  0  0  0  0  0  0
   -2.7063   -0.2549   -0.2508 C   0  0  0  0  0  0  0  0  0  0  0  0
   -2.5898   -1.6360   -0.4074 C   0  0  0  0  0  0  0  0  0  0  0  0
   -1.3623   -2.2630   -0.1977 C   0  0  0  0  0  0  0  0  0  0  0  0
   -0.2412   -1.5146    0.1691 C   0  0  0  0  0  0  0  0  0  0  0  0
   -0.3318   -0.1148    0.3312 C   0  0  0  0  0  0  0  0  0  0  0  0
    2.9330    0.5441   -1.2858 O   0  0  0  0  0  0  0  0  0  0  0  0
    3.2493   -2.2884    0.1848 H   0  0  0  0  0  0  0  0  0  0  0  0
    2.8311    0.8314    1.4321 H   0  0  0  0  0  0  0  0  0  0  0  0
    2.0964   -0.7710    1.6296 H   0  0  0  0  0  0  0  0  0  0  0  0
    1.4614    2.6961    1.1277 H   0  0  0  0  0  0  0  0  0  0  0  0
   -0.7243    3.7402    0.7567 H   0  0  0  0  0  0  0  0  0  0  0  0
   -2.6721    2.3882    0.1134 H   0  0  0  0  0  0  0  0  0  0  0  0
   -3.6692    0.2137   -0.4170 H   0  0  0  0  0  0  0  0  0  0  0  0
   -3.4541   -2.2225   -0.6912 H   0  0  0  0  0  0  0  0  0  0  0  0
   -1.2785   -3.3353   -0.3193 H   0  0  0  0  0  0  0  0  0  0  0  0
    0.6867   -2.0453    0.3227 H   0  0  0  0  0  0  0  0  0  0  0  0
  1  2  1  0
  2  3  1  0
  2 14  2  0
  3  4  1  0
  4  5  2  0
  4 13  1  0
  5  6  1  0
  6  7  2  0
  7  8  1  0
  8  9  1  0
  8 13  2  0
  9 10  2  0
 10 11  1  0
 11 12  2  0
 12 13  1  0
  1 15  1  0
  3 16  1  0
  3 17  1  0
  5 18  1  0
  6 19  1  0
  7 20  1  0
  9 21  1  0
 10 22  1  0
 11 23  1  0
 12 24  1  0
M  END
$$$$
