Ic1c([nH]c(I)c1I)I
     RDKit          3D

 10 10  0  0  0  0  0  0  0  0999 V2000
    1.8136    2.6641   -0.0209 I   0  0  0  0  0  0  0  0  0  0  0  0
    0.6432    0.9037   -0.0073 C   0  0  0  0  0  0  0  0  0  0  0  0
    1.1055   -0.3997   -0.0047 C   0  0  0  0  0  0  0  0  0  0  0  0
    0.0692   -1.2563    0.0046 N   0  0  0  0  0  0  0  0  0  0  0  0
   -1.0550   -0.5186    0.0081 C   0  0  0  0  0  0  0  0  0  0  0  0
   -2.9928   -1.3539    0.0224 I   0  0  0  0  0  0  0  0  0  0  0  0
   -0.7385    0.8277    0.0009 C   0  0  0  0  0  0  0  0  0  0  0  0
   -2.0951    2.4490    0.0022 I   0  0  0  0  0  0  0  0  0  0  0  0
    3.1233   -1.0173   -0.0138 I   0  0  0  0  0  0  0  0  0  0  0  0
    0.1265   -2.2987    0.0084 H   0  0  0  0  0  0  0  0  0  0  0  0
  1  2  1  0
  2  7  1  0
  2  3  2  0
  3  9  1  0
  3  4  1  0
  4  5  1  0
  5  7  2  0
  5  6  1  0
  7  8  1  0
  4 10  1  0
M  END
$$$$
