ClC(C(Cl)=C(Cl)Cl)=C(Cl)Cl
     RDKit          3D

 10  9  0  0  0  0  0  0  0  0999 V2000
   -1.5948   -1.5966    1.1546 Cl  0  0  0  0  0  0  0  0  0  0  0  0
   -0.7547   -0.2213    0.4472 C   0  0  0  0  0  0  0  0  0  0  0  0
    0.7181   -0.2345    0.4981 C   0  0  0  0  0  0  0  0  0  0  0  0
    1.4699    0.0443    2.0648 Cl  0  0  0  0  0  0  0  0  0  0  0  0
    1.4613   -0.4926   -0.5910 C   0  0  0  0  0  0  0  0  0  0  0  0
    3.2177   -0.5144   -0.5150 Cl  0  0  0  0  0  0  0  0  0  0  0  0
    0.7262   -0.8520   -2.1501 Cl  0  0  0  0  0  0  0  0  0  0  0  0
   -1.4354    0.8131   -0.0739 C   0  0  0  0  0  0  0  0  0  0  0  0
   -0.6150    2.2332   -0.7146 Cl  0  0  0  0  0  0  0  0  0  0  0  0
   -3.1931    0.8206   -0.1201 Cl  0  0  0  0  0  0  0  0  0  0  0  0
  1  2  1  0
  2  3  1  0
  2  8  2  0
  3  5  2  0
  3  4  1  0
  5  6  1  0
  5  7  1  0
  8  9  1  0
  8 10  1  0
M  END
$$$$
