Oc1c(Cl)c(Cl)c(Cl)c(Cl)c1Cl
     RDKit          3D

 13 13  0  0  0  0  0  0  0  0999 V2000
   -2.1862    1.3557    0.0475 O   0  0  0  0  0  0  0  0  0  0  0  0
   -1.0082    0.6045    0.0193 C   0  0  0  0  0  0  0  0  0  0  0  0
    0.2534    1.2138    0.1673 C   0  0  0  0  0  0  0  0  0  0  0  0
    0.3787    2.9595    0.3945 Cl  0  0  0  0  0  0  0  0  0  0  0  0
    1.4196    0.4276    0.1340 C   0  0  0  0  0  0  0  0  0  0  0  0
    3.0027    1.1873    0.3192 Cl  0  0  0  0  0  0  0  0  0  0  0  0
    1.3256   -0.9639   -0.0467 C   0  0  0  0  0  0  0  0  0  0  0  0
    2.7892   -1.9503   -0.0885 Cl  0  0  0  0  0  0  0  0  0  0  0  0
    0.0658   -1.5697   -0.1942 C   0  0  0  0  0  0  0  0  0  0  0  0
   -0.0566   -3.3158   -0.4212 Cl  0  0  0  0  0  0  0  0  0  0  0  0
   -1.0977   -0.7831   -0.1607 C   0  0  0  0  0  0  0  0  0  0  0  0
   -2.6866   -1.5253   -0.3439 Cl  0  0  0  0  0  0  0  0  0  0  0  0
   -2.1997    2.3595    0.1733 H   0  0  0  0  0  0  0  0  0  0  0  0
  1  2  1  0
  2 11  2  0
  2  3  1  0
  3  4  1  0
  3  5  2  0
  5  7  1  0
  5  6  1  0
  7  9  2  0
  7  8  1  0
  9 11  1  0
  9 10  1  0
 11 12  1  0
  1 13  1  0
M  END
$$$$
