CCc1cccs1
     RDKit          3D

 15 15  0  0  0  0  0  0  0  0999 V2000
   -2.2271    0.4043    0.4498 C   0  0  0  0  0  0  0  0  0  0  0  0
   -1.3484   -0.3507   -0.5418 C   0  0  0  0  0  0  0  0  0  0  0  0
    0.0929   -0.2909   -0.1365 C   0  0  0  0  0  0  0  0  0  0  0  0
    1.1148    0.3247   -0.8483 C   0  0  0  0  0  0  0  0  0  0  0  0
    2.3660    0.2030   -0.2320 C   0  0  0  0  0  0  0  0  0  0  0  0
    2.3343   -0.5098    0.9600 C   0  0  0  0  0  0  0  0  0  0  0  0
    0.7480   -0.9895    1.2469 S   0  0  0  0  0  0  0  0  0  0  0  0
   -1.9105    1.4675    0.5124 H   0  0  0  0  0  0  0  0  0  0  0  0
   -3.2842    0.3671    0.1121 H   0  0  0  0  0  0  0  0  0  0  0  0
   -2.1617   -0.0585    1.4576 H   0  0  0  0  0  0  0  0  0  0  0  0
   -1.6697   -1.4127   -0.5910 H   0  0  0  0  0  0  0  0  0  0  0  0
   -1.4773    0.0975   -1.5508 H   0  0  0  0  0  0  0  0  0  0  0  0
    0.9638    0.8463   -1.7844 H   0  0  0  0  0  0  0  0  0  0  0  0
    3.2731    0.6227   -0.6460 H   0  0  0  0  0  0  0  0  0  0  0  0
    3.1860   -0.7209    1.5921 H   0  0  0  0  0  0  0  0  0  0  0  0
  1  2  1  0
  2  3  1  0
  3  4  2  0
  3  7  1  0
  4  5  1  0
  5  6  2  0
  6  7  1  0
  1  8  1  0
  1  9  1  0
  1 10  1  0
  2 11  1  0
  2 12  1  0
  4 13  1  0
  5 14  1  0
  6 15  1  0
M  END
$$$$
