O=C(O)c1cscc1
     RDKit          3D

 12 12  0  0  0  0  0  0  0  0999 V2000
   -2.0201   -1.3240   -0.7675 O   0  0  0  0  0  0  0  0  0  0  0  0
   -1.6191   -0.3572   -0.0667 C   0  0  0  0  0  0  0  0  0  0  0  0
   -2.5620    0.3897    0.6383 O   0  0  0  0  0  0  0  0  0  0  0  0
   -0.1730   -0.0452   -0.0126 C   0  0  0  0  0  0  0  0  0  0  0  0
    0.3801    0.9990    0.7287 C   0  0  0  0  0  0  0  0  0  0  0  0
    2.0442    0.9816    0.4976 S   0  0  0  0  0  0  0  0  0  0  0  0
    2.0903   -0.3388   -0.5370 C   0  0  0  0  0  0  0  0  0  0  0  0
    0.7907   -0.7889   -0.7179 C   0  0  0  0  0  0  0  0  0  0  0  0
   -2.3130    1.1782    1.2200 H   0  0  0  0  0  0  0  0  0  0  0  0
   -0.1467    1.7084    1.3501 H   0  0  0  0  0  0  0  0  0  0  0  0
    2.9767   -0.7662   -0.9858 H   0  0  0  0  0  0  0  0  0  0  0  0
    0.5519   -1.6367   -1.3471 H   0  0  0  0  0  0  0  0  0  0  0  0
  1  2  2  0
  2  4  1  0
  2  3  1  0
  4  8  1  0
  4  5  2  0
  5  6  1  0
  6  7  1  0
  7  8  2  0
  3  9  1  0
  5 10  1  0
  7 11  1  0
  8 12  1  0
M  END
$$$$
