OC(c1ccccc1C(O)=O)=O
     RDKit          3D

 18 18  0  0  0  0  0  0  0  0999 V2000
   -2.5115    1.5344   -1.2896 O   0  0  0  0  0  0  0  0  0  0  0  0
   -1.3104    0.8481   -1.4552 C   0  0  0  0  0  0  0  0  0  0  0  0
   -0.4288    0.5695   -0.2981 C   0  0  0  0  0  0  0  0  0  0  0  0
   -0.2214    1.5982    0.6384 C   0  0  0  0  0  0  0  0  0  0  0  0
    0.6739    1.4309    1.6952 C   0  0  0  0  0  0  0  0  0  0  0  0
    1.3792    0.2376    1.8306 C   0  0  0  0  0  0  0  0  0  0  0  0
    1.1795   -0.8008    0.9201 C   0  0  0  0  0  0  0  0  0  0  0  0
    0.2668   -0.6622   -0.1420 C   0  0  0  0  0  0  0  0  0  0  0  0
    0.0326   -1.8365   -1.0163 C   0  0  0  0  0  0  0  0  0  0  0  0
    1.0440   -2.7751   -1.2042 O   0  0  0  0  0  0  0  0  0  0  0  0
   -1.0900   -2.0236   -1.5578 O   0  0  0  0  0  0  0  0  0  0  0  0
   -0.9621    0.4988   -2.6140 O   0  0  0  0  0  0  0  0  0  0  0  0
   -2.8475    1.8035   -0.3729 H   0  0  0  0  0  0  0  0  0  0  0  0
   -0.7285    2.5496    0.5337 H   0  0  0  0  0  0  0  0  0  0  0  0
    0.8311    2.2345    2.4031 H   0  0  0  0  0  0  0  0  0  0  0  0
    2.0771    0.1126    2.6486 H   0  0  0  0  0  0  0  0  0  0  0  0
    1.7218   -1.7273    1.0644 H   0  0  0  0  0  0  0  0  0  0  0  0
    0.8943   -3.5923   -1.7839 H   0  0  0  0  0  0  0  0  0  0  0  0
  1  2  1  0
  2  3  1  0
  2 12  2  0
  3  4  2  0
  3  8  1  0
  4  5  1  0
  5  6  2  0
  6  7  1  0
  7  8  2  0
  8  9  1  0
  9 10  1  0
  9 11  2  0
  1 13  1  0
  4 14  1  0
  5 15  1  0
  6 16  1  0
  7 17  1  0
 10 18  1  0
M  END
$$$$
