CC(C(CCC(C)C1)C1O)C
     RDKit          3D

 31 31  0  0  1  0  0  0  0  0999 V2000
   -2.9841   -0.6804   -0.2210 C   0  0  0  0  0  0  0  0  0  0  0  0
   -1.8801    0.3542   -0.5234 C   0  0  0  0  0  0  0  0  0  0  0  0
   -0.5928    0.1178    0.3508 C   0  0  1  0  0  0  0  0  0  0  0  0
   -0.0844   -1.3390    0.1671 C   0  0  0  0  0  0  0  0  0  0  0  0
    1.2253   -1.6209    0.9105 C   0  0  0  0  0  0  0  0  0  0  0  0
    2.3427   -0.6460    0.5188 C   0  0  1  0  0  0  0  0  0  0  0  0
    2.8651   -0.8881   -0.9066 C   0  0  0  0  0  0  0  0  0  0  0  0
    1.8775    0.8002    0.7355 C   0  0  0  0  0  0  0  0  0  0  0  0
    0.5527    1.1318    0.0151 C   0  0  2  0  0  0  0  0  0  0  0  0
    0.1950    2.4502    0.3463 O   0  0  0  0  0  0  0  0  0  0  0  0
   -2.4766    1.7643   -0.3492 C   0  0  0  0  0  0  0  0  0  0  0  0
   -2.6996   -1.6851   -0.5953 H   0  0  0  0  0  0  0  0  0  0  0  0
   -3.1837   -0.7317    0.8708 H   0  0  0  0  0  0  0  0  0  0  0  0
   -3.9296   -0.4191   -0.7426 H   0  0  0  0  0  0  0  0  0  0  0  0
   -1.6061    0.2405   -1.5960 H   0  0  0  0  0  0  0  0  0  0  0  0
   -0.8674    0.2427    1.4226 H   0  0  0  0  0  0  0  0  0  0  0  0
    0.0403   -1.5674   -0.9133 H   0  0  0  0  0  0  0  0  0  0  0  0
   -0.8296   -2.0528    0.5756 H   0  0  0  0  0  0  0  0  0  0  0  0
    1.0414   -1.5420    2.0051 H   0  0  0  0  0  0  0  0  0  0  0  0
    1.5473   -2.6655    0.7069 H   0  0  0  0  0  0  0  0  0  0  0  0
    3.1982   -0.8276    1.2071 H   0  0  0  0  0  0  0  0  0  0  0  0
    3.7149   -0.2051   -1.1190 H   0  0  0  0  0  0  0  0  0  0  0  0
    2.0800   -0.7183   -1.6706 H   0  0  0  0  0  0  0  0  0  0  0  0
    3.2317   -1.9320   -1.0037 H   0  0  0  0  0  0  0  0  0  0  0  0
    2.6691    1.5027    0.3937 H   0  0  0  0  0  0  0  0  0  0  0  0
    1.7480    0.9649    1.8285 H   0  0  0  0  0  0  0  0  0  0  0  0
    0.7353    1.1030   -1.0803 H   0  0  0  0  0  0  0  0  0  0  0  0
   -0.0207    2.4715    1.3156 H   0  0  0  0  0  0  0  0  0  0  0  0
   -3.4888    1.8305   -0.8022 H   0  0  0  0  0  0  0  0  0  0  0  0
   -1.8637    2.5184   -0.8828 H   0  0  0  0  0  0  0  0  0  0  0  0
   -2.5571    2.0282    0.7269 H   0  0  0  0  0  0  0  0  0  0  0  0
  1  2  1  0
  2 11  1  0
  2  3  1  0
  3  4  1  0
  3  9  1  0
  4  5  1  0
  5  6  1  0
  6  7  1  0
  6  8  1  0
  8  9  1  0
  9 10  1  0
  1 12  1  0
  1 13  1  0
  1 14  1  0
  2 15  1  0
  3 16  1  1
  4 17  1  0
  4 18  1  0
  5 19  1  0
  5 20  1  0
  6 21  1  1
  7 22  1  0
  7 23  1  0
  7 24  1  0
  8 25  1  0
  8 26  1  0
  9 27  1  6
 10 28  1  0
 11 29  1  0
 11 30  1  0
 11 31  1  0
M  END
$$$$
