Cc1cc(O)c(C(C)C)cc1
     RDKit          3D

 25 25  0  0  0  0  0  0  0  0999 V2000
    3.8831    0.3839    0.1295 C   0  0  0  0  0  0  0  0  0  0  0  0
    2.3931    0.2302    0.0425 C   0  0  0  0  0  0  0  0  0  0  0  0
    1.8456   -0.9313   -0.5128 C   0  0  0  0  0  0  0  0  0  0  0  0
    0.4588   -1.1053   -0.5969 C   0  0  0  0  0  0  0  0  0  0  0  0
   -0.0040   -2.3268   -1.0941 O   0  0  0  0  0  0  0  0  0  0  0  0
   -0.4132   -0.0683   -0.1667 C   0  0  0  0  0  0  0  0  0  0  0  0
   -1.9295   -0.2037   -0.2778 C   0  0  0  0  0  0  0  0  0  0  0  0
   -2.4997   -0.8300    0.9981 C   0  0  0  0  0  0  0  0  0  0  0  0
   -2.6383    1.1241   -0.5946 C   0  0  0  0  0  0  0  0  0  0  0  0
    0.1552    1.0752    0.4350 C   0  0  0  0  0  0  0  0  0  0  0  0
    1.5396    1.2261    0.5282 C   0  0  0  0  0  0  0  0  0  0  0  0
    4.3221    0.3426   -0.8896 H   0  0  0  0  0  0  0  0  0  0  0  0
    4.1673    1.3513    0.5957 H   0  0  0  0  0  0  0  0  0  0  0  0
    4.3081   -0.4396    0.7412 H   0  0  0  0  0  0  0  0  0  0  0  0
    2.5011   -1.7197   -0.8637 H   0  0  0  0  0  0  0  0  0  0  0  0
   -0.9703   -2.6206   -1.0673 H   0  0  0  0  0  0  0  0  0  0  0  0
   -2.1807   -0.8632   -1.1330 H   0  0  0  0  0  0  0  0  0  0  0  0
   -2.0348   -1.8226    1.1789 H   0  0  0  0  0  0  0  0  0  0  0  0
   -2.3013   -0.1775    1.8755 H   0  0  0  0  0  0  0  0  0  0  0  0
   -3.5967   -0.9739    0.8979 H   0  0  0  0  0  0  0  0  0  0  0  0
   -3.6918    0.9269   -0.8880 H   0  0  0  0  0  0  0  0  0  0  0  0
   -2.6558    1.8000    0.2860 H   0  0  0  0  0  0  0  0  0  0  0  0
   -2.1350    1.6365   -1.4423 H   0  0  0  0  0  0  0  0  0  0  0  0
   -0.4662    1.8629    0.8363 H   0  0  0  0  0  0  0  0  0  0  0  0
    1.9433    2.1229    0.9819 H   0  0  0  0  0  0  0  0  0  0  0  0
  1  2  1  0
  2 11  2  0
  2  3  1  0
  3  4  2  0
  4  6  1  0
  4  5  1  0
  6  7  1  0
  6 10  2  0
  7  9  1  0
  7  8  1  0
 10 11  1  0
  1 12  1  0
  1 13  1  0
  1 14  1  0
  3 15  1  0
  5 16  1  0
  7 17  1  0
  8 18  1  0
  8 19  1  0
  8 20  1  0
  9 21  1  0
  9 22  1  0
  9 23  1  0
 10 24  1  0
 11 25  1  0
M  END
$$$$
