CCc(cccc1)c1O
     RDKit          3D

 19 19  0  0  0  0  0  0  0  0999 V2000
   -2.5072   -0.2020   -0.3720 C   0  0  0  0  0  0  0  0  0  0  0  0
   -1.5779   -0.0747    0.8321 C   0  0  0  0  0  0  0  0  0  0  0  0
   -0.1300   -0.1276    0.4099 C   0  0  0  0  0  0  0  0  0  0  0  0
    0.6232   -1.2927    0.6385 C   0  0  0  0  0  0  0  0  0  0  0  0
    1.9643   -1.3556    0.2507 C   0  0  0  0  0  0  0  0  0  0  0  0
    2.5674   -0.2577   -0.3654 C   0  0  0  0  0  0  0  0  0  0  0  0
    1.8319    0.9075   -0.5935 C   0  0  0  0  0  0  0  0  0  0  0  0
    0.4854    0.9816   -0.2069 C   0  0  0  0  0  0  0  0  0  0  0  0
   -0.2384    2.1532   -0.4280 O   0  0  0  0  0  0  0  0  0  0  0  0
   -3.5631   -0.1850   -0.0291 H   0  0  0  0  0  0  0  0  0  0  0  0
   -2.3530    0.6400   -1.0789 H   0  0  0  0  0  0  0  0  0  0  0  0
   -2.3206   -1.1615   -0.9003 H   0  0  0  0  0  0  0  0  0  0  0  0
   -1.8076   -0.8997    1.5414 H   0  0  0  0  0  0  0  0  0  0  0  0
   -1.7807    0.8792    1.3651 H   0  0  0  0  0  0  0  0  0  0  0  0
    0.1713   -2.1559    1.1112 H   0  0  0  0  0  0  0  0  0  0  0  0
    2.5362   -2.2574    0.4274 H   0  0  0  0  0  0  0  0  0  0  0  0
    3.6062   -0.3091   -0.6651 H   0  0  0  0  0  0  0  0  0  0  0  0
    2.3098    1.7548   -1.0687 H   0  0  0  0  0  0  0  0  0  0  0  0
    0.1828    2.9627   -0.8684 H   0  0  0  0  0  0  0  0  0  0  0  0
  1  2  1  0
  2  3  1  0
  3  4  2  0
  3  8  1  0
  4  5  1  0
  5  6  2  0
  6  7  1  0
  7  8  2  0
  8  9  1  0
  1 10  1  0
  1 11  1  0
  1 12  1  0
  2 13  1  0
  2 14  1  0
  4 15  1  0
  5 16  1  0
  6 17  1  0
  7 18  1  0
  9 19  1  0
M  END
$$$$
