C12CCCCN1CC(C(CCCC4)N4C3)CC23
     RDKit          3D

 43 46  0  0  1  0  0  0  0  0999 V2000
   -1.8086   -0.4775   -0.5793 C   0  0  1  0  0  0  0  0  0  0  0  0
   -1.8403   -1.2167    0.7757 C   0  0  0  0  0  0  0  0  0  0  0  0
   -3.0791   -0.8227    1.6060 C   0  0  0  0  0  0  0  0  0  0  0  0
   -3.7004    0.5124    1.1655 C   0  0  0  0  0  0  0  0  0  0  0  0
   -2.6133    1.5034    0.7355 C   0  0  0  0  0  0  0  0  0  0  0  0
   -1.7879    1.0062   -0.3983 N   0  0  0  0  0  0  0  0  0  0  0  0
   -0.4299    1.5944   -0.3404 C   0  0  0  0  0  0  0  0  0  0  0  0
    0.4933    1.1384   -1.5117 C   0  0  1  0  0  0  0  0  0  0  0  0
    1.7517    0.3949   -0.9833 C   0  0  1  0  0  0  0  0  0  0  0  0
    2.6862    1.3386   -0.1705 C   0  0  0  0  0  0  0  0  0  0  0  0
    2.9167    0.8442    1.2615 C   0  0  0  0  0  0  0  0  0  0  0  0
    3.3531   -0.6242    1.2757 C   0  0  0  0  0  0  0  0  0  0  0  0
    2.5128   -1.5070    0.3301 C   0  0  0  0  0  0  0  0  0  0  0  0
    1.3311   -0.7874   -0.1874 N   0  0  0  0  0  0  0  0  0  0  0  0
    0.5034   -1.7042   -1.0029 C   0  0  0  0  0  0  0  0  0  0  0  0
   -0.2561    0.1898   -2.4529 C   0  0  0  0  0  0  0  0  0  0  0  0
   -0.7369   -0.9889   -1.6054 C   0  0  2  0  0  0  0  0  0  0  0  0
   -2.7800   -0.7118   -1.0717 H   0  0  0  0  0  0  0  0  0  0  0  0
   -0.9229   -0.9680    1.3519 H   0  0  0  0  0  0  0  0  0  0  0  0
   -1.8638   -2.3155    0.6112 H   0  0  0  0  0  0  0  0  0  0  0  0
   -3.8532   -1.6164    1.5215 H   0  0  0  0  0  0  0  0  0  0  0  0
   -2.7887   -0.7576    2.6775 H   0  0  0  0  0  0  0  0  0  0  0  0
   -4.4010    0.3445    0.3185 H   0  0  0  0  0  0  0  0  0  0  0  0
   -4.2882    0.9428    2.0051 H   0  0  0  0  0  0  0  0  0  0  0  0
   -1.9897    1.7255    1.6319 H   0  0  0  0  0  0  0  0  0  0  0  0
   -3.1002    2.4536    0.4289 H   0  0  0  0  0  0  0  0  0  0  0  0
    0.0301    1.3596    0.6426 H   0  0  0  0  0  0  0  0  0  0  0  0
   -0.5190    2.7023   -0.3875 H   0  0  0  0  0  0  0  0  0  0  0  0
    0.8164    2.0256   -2.1013 H   0  0  0  0  0  0  0  0  0  0  0  0
    2.3386    0.0507   -1.8688 H   0  0  0  0  0  0  0  0  0  0  0  0
    3.6723    1.4030   -0.6817 H   0  0  0  0  0  0  0  0  0  0  0  0
    2.2864    2.3751   -0.1275 H   0  0  0  0  0  0  0  0  0  0  0  0
    1.9817    0.9538    1.8514 H   0  0  0  0  0  0  0  0  0  0  0  0
    3.6957    1.4682    1.7504 H   0  0  0  0  0  0  0  0  0  0  0  0
    3.2750   -1.0072    2.3167 H   0  0  0  0  0  0  0  0  0  0  0  0
    4.4233   -0.6881    0.9797 H   0  0  0  0  0  0  0  0  0  0  0  0
    3.1530   -1.8553   -0.5131 H   0  0  0  0  0  0  0  0  0  0  0  0
    2.1874   -2.4100    0.8935 H   0  0  0  0  0  0  0  0  0  0  0  0
    0.1784   -2.5731   -0.3931 H   0  0  0  0  0  0  0  0  0  0  0  0
    1.1093   -2.1241   -1.8392 H   0  0  0  0  0  0  0  0  0  0  0  0
   -1.1171    0.7102   -2.9287 H   0  0  0  0  0  0  0  0  0  0  0  0
    0.4087   -0.1612   -3.2736 H   0  0  0  0  0  0  0  0  0  0  0  0
   -1.2279   -1.7203   -2.2866 H   0  0  0  0  0  0  0  0  0  0  0  0
  1  2  1  0
  1 17  1  0
  1  6  1  0
  2  3  1  0
  3  4  1  0
  4  5  1  0
  6  5  1  0
  6  7  1  0
  7  8  1  0
  8 16  1  0
  8  9  1  0
  9 10  1  0
  9 14  1  0
 10 11  1  0
 11 12  1  0
 12 13  1  0
 14 13  1  0
 14 15  1  0
 15 17  1  0
 16 17  1  0
  1 18  1  6
  2 19  1  0
  2 20  1  0
  3 21  1  0
  3 22  1  0
  4 23  1  0
  4 24  1  0
  5 25  1  0
  5 26  1  0
  7 27  1  0
  7 28  1  0
  8 29  1  6
  9 30  1  6
 10 31  1  0
 10 32  1  0
 11 33  1  0
 11 34  1  0
 12 35  1  0
 12 36  1  0
 13 37  1  0
 13 38  1  0
 15 39  1  0
 15 40  1  0
 16 41  1  0
 16 42  1  0
 17 43  1  6
M  END
$$$$
