
     RDKit          3D

 26 27  0  0  0  0  0  0  0  0999 V2000
   -0.1495   -2.4002    1.0874 O   0  0  0  0  0  0  0  0  0  0  0  0
   -0.0945   -0.9988    1.2148 C   0  0  0  0  0  0  0  0  0  0  0  0
   -1.2859   -0.3483    0.5328 C   0  0  0  0  0  0  0  0  0  0  0  0
   -2.2753    0.2960    1.2974 C   0  0  0  0  0  0  0  0  0  0  0  0
   -3.3698    0.9012    0.6721 C   0  0  0  0  0  0  0  0  0  0  0  0
   -3.4873    0.8707   -0.7196 C   0  0  0  0  0  0  0  0  0  0  0  0
   -2.5101    0.2355   -1.4894 C   0  0  0  0  0  0  0  0  0  0  0  0
   -1.4140   -0.3715   -0.8693 C   0  0  0  0  0  0  0  0  0  0  0  0
    1.2167   -0.4166    0.7110 C   0  0  0  0  0  0  0  0  0  0  0  0
    1.4696    0.9556    0.8971 C   0  0  0  0  0  0  0  0  0  0  0  0
    2.6646    1.5260    0.4496 C   0  0  0  0  0  0  0  0  0  0  0  0
    3.6245    0.7339   -0.1829 C   0  0  0  0  0  0  0  0  0  0  0  0
    3.3924   -0.6307   -0.3662 C   0  0  0  0  0  0  0  0  0  0  0  0
    2.1987   -1.2074    0.0790 C   0  0  0  0  0  0  0  0  0  0  0  0
   -0.2463   -2.6238    0.1252 H   0  0  0  0  0  0  0  0  0  0  0  0
   -0.1360   -0.7824    2.3048 H   0  0  0  0  0  0  0  0  0  0  0  0
   -2.2014    0.3311    2.3772 H   0  0  0  0  0  0  0  0  0  0  0  0
   -4.1272    1.3948    1.2672 H   0  0  0  0  0  0  0  0  0  0  0  0
   -4.3350    1.3405   -1.2015 H   0  0  0  0  0  0  0  0  0  0  0  0
   -2.6007    0.2149   -2.5677 H   0  0  0  0  0  0  0  0  0  0  0  0
   -0.6616   -0.8522   -1.4820 H   0  0  0  0  0  0  0  0  0  0  0  0
    0.7372    1.5844    1.3885 H   0  0  0  0  0  0  0  0  0  0  0  0
    2.8467    2.5830    0.5948 H   0  0  0  0  0  0  0  0  0  0  0  0
    4.5496    1.1769   -0.5285 H   0  0  0  0  0  0  0  0  0  0  0  0
    4.1399   -1.2441   -0.8529 H   0  0  0  0  0  0  0  0  0  0  0  0
    2.0543   -2.2682   -0.0731 H   0  0  0  0  0  0  0  0  0  0  0  0
  1  2  1  0
  2  9  1  0
  2  3  1  0
  3  8  1  0
  3  4  2  0
  4  5  1  0
  5  6  2  0
  6  7  1  0
  7  8  2  0
  9 14  1  0
  9 10  2  0
 10 11  1  0
 11 12  2  0
 12 13  1  0
 13 14  2  0
  1 15  1  0
  2 16  1  0
  4 17  1  0
  5 18  1  0
  6 19  1  0
  7 20  1  0
  8 21  1  0
 10 22  1  0
 11 23  1  0
 12 24  1  0
 13 25  1  0
 14 26  1  0
M  END
$$$$
