c12nccnc1ncnc2
     RDKit          3D

 14 15  0  0  0  0  0  0  0  0999 V2000
   -0.2111    0.5053    0.3237 C   0  0  0  0  0  0  0  0  0  0  0  0
    0.8859    1.1859    0.7479 N   0  0  0  0  0  0  0  0  0  0  0  0
    2.1368    0.7404    0.4534 C   0  0  0  0  0  0  0  0  0  0  0  0
    2.2957   -0.4318   -0.2947 C   0  0  0  0  0  0  0  0  0  0  0  0
    1.1974   -1.1132   -0.7194 N   0  0  0  0  0  0  0  0  0  0  0  0
   -0.0534   -0.6709   -0.4270 C   0  0  0  0  0  0  0  0  0  0  0  0
   -1.1466   -1.3542   -0.8529 N   0  0  0  0  0  0  0  0  0  0  0  0
   -2.3982   -0.9099   -0.5592 C   0  0  0  0  0  0  0  0  0  0  0  0
   -2.5688    0.2282    0.1673 N   0  0  0  0  0  0  0  0  0  0  0  0
   -1.5022    0.9433    0.6138 C   0  0  0  0  0  0  0  0  0  0  0  0
    3.0022    1.2911    0.7969 H   0  0  0  0  0  0  0  0  0  0  0  0
    3.2852   -0.7966   -0.5355 H   0  0  0  0  0  0  0  0  0  0  0  0
   -3.2609   -1.4631   -0.9042 H   0  0  0  0  0  0  0  0  0  0  0  0
   -1.6620    1.8455    1.1899 H   0  0  0  0  0  0  0  0  0  0  0  0
  1  2  2  0
  1  6  1  0
  1 10  1  0
  2  3  1  0
  3  4  2  0
  4  5  1  0
  5  6  2  0
  6  7  1  0
  7  8  2  0
  8  9  1  0
  9 10  2  0
  3 11  1  0
  4 12  1  0
  8 13  1  0
 10 14  1  0
M  END
$$$$
