c12ccccc1cccc2
     RDKit          3D

 18 19  0  0  0  0  0  0  0  0999 V2000
    0.0116    0.7073    0.0423 C   0  0  0  0  0  0  0  0  0  0  0  0
    1.2392    1.3748    0.1741 C   0  0  0  0  0  0  0  0  0  0  0  0
    2.4318    0.6469    0.2215 C   0  0  0  0  0  0  0  0  0  0  0  0
    2.4089   -0.7480    0.1381 C   0  0  0  0  0  0  0  0  0  0  0  0
    1.1932   -1.4256    0.0066 C   0  0  0  0  0  0  0  0  0  0  0  0
   -0.0116   -0.7073   -0.0423 C   0  0  0  0  0  0  0  0  0  0  0  0
   -1.2392   -1.3748   -0.1741 C   0  0  0  0  0  0  0  0  0  0  0  0
   -2.4318   -0.6469   -0.2215 C   0  0  0  0  0  0  0  0  0  0  0  0
   -2.4089    0.7480   -0.1381 C   0  0  0  0  0  0  0  0  0  0  0  0
   -1.1932    1.4256   -0.0066 C   0  0  0  0  0  0  0  0  0  0  0  0
    1.2761    2.4557    0.2402 H   0  0  0  0  0  0  0  0  0  0  0  0
    3.3764    1.1654    0.3233 H   0  0  0  0  0  0  0  0  0  0  0  0
    3.3358   -1.3056    0.1755 H   0  0  0  0  0  0  0  0  0  0  0  0
    1.1946   -2.5073   -0.0566 H   0  0  0  0  0  0  0  0  0  0  0  0
   -1.2761   -2.4557   -0.2402 H   0  0  0  0  0  0  0  0  0  0  0  0
   -3.3764   -1.1654   -0.3233 H   0  0  0  0  0  0  0  0  0  0  0  0
   -3.3358    1.3056   -0.1755 H   0  0  0  0  0  0  0  0  0  0  0  0
   -1.1946    2.5073    0.0566 H   0  0  0  0  0  0  0  0  0  0  0  0
  1  6  1  0
  1 10  1  0
  1  2  2  0
  2  3  1  0
  3  4  2  0
  4  5  1  0
  5  6  2  0
  6  7  1  0
  7  8  2  0
  8  9  1  0
  9 10  2  0
  2 11  1  0
  3 12  1  0
  4 13  1  0
  5 14  1  0
  7 15  1  0
  8 16  1  0
  9 17  1  0
 10 18  1  0
M  END
$$$$
