Cc1cc(cccc2)c2cc1
     RDKit          3D

 21 22  0  0  0  0  0  0  0  0999 V2000
   -3.3382   -0.3701    0.1015 C   0  0  0  0  0  0  0  0  0  0  0  0
   -1.8937    0.0042   -0.0547 C   0  0  0  0  0  0  0  0  0  0  0  0
   -0.8973   -0.8588    0.4256 C   0  0  0  0  0  0  0  0  0  0  0  0
    0.4583   -0.5238    0.2875 C   0  0  0  0  0  0  0  0  0  0  0  0
    1.4605   -1.3827    0.7657 C   0  0  0  0  0  0  0  0  0  0  0  0
    2.8075   -1.0377    0.6222 C   0  0  0  0  0  0  0  0  0  0  0  0
    3.1642    0.1629    0.0023 C   0  0  0  0  0  0  0  0  0  0  0  0
    2.1763    1.0272   -0.4784 C   0  0  0  0  0  0  0  0  0  0  0  0
    0.8200    0.6928   -0.3406 C   0  0  0  0  0  0  0  0  0  0  0  0
   -0.1806    1.5511   -0.8185 C   0  0  0  0  0  0  0  0  0  0  0  0
   -1.5280    1.2086   -0.6763 C   0  0  0  0  0  0  0  0  0  0  0  0
   -4.0095    0.4059   -0.3241 H   0  0  0  0  0  0  0  0  0  0  0  0
   -3.5335   -1.3295   -0.4222 H   0  0  0  0  0  0  0  0  0  0  0  0
   -3.5779   -0.4896    1.1791 H   0  0  0  0  0  0  0  0  0  0  0  0
   -1.1813   -1.7889    0.9055 H   0  0  0  0  0  0  0  0  0  0  0  0
    1.2028   -2.3176    1.2489 H   0  0  0  0  0  0  0  0  0  0  0  0
    3.5771   -1.7028    0.9923 H   0  0  0  0  0  0  0  0  0  0  0  0
    4.2089    0.4243   -0.1058 H   0  0  0  0  0  0  0  0  0  0  0  0
    2.4713    1.9539   -0.9562 H   0  0  0  0  0  0  0  0  0  0  0  0
    0.0787    2.4857   -1.3016 H   0  0  0  0  0  0  0  0  0  0  0  0
   -2.2857    1.8850   -1.0521 H   0  0  0  0  0  0  0  0  0  0  0  0
  1  2  1  0
  2 11  2  0
  2  3  1  0
  3  4  2  0
  4  5  1  0
  4  9  1  0
  5  6  2  0
  6  7  1  0
  7  8  2  0
  8  9  1  0
  9 10  2  0
 10 11  1  0
  1 12  1  0
  1 13  1  0
  1 14  1  0
  3 15  1  0
  5 16  1  0
  6 17  1  0
  7 18  1  0
  8 19  1  0
 10 20  1  0
 11 21  1  0
M  END
$$$$
