CCN(c1ccccc1)CC
     RDKit          3D

 26 26  0  0  0  0  0  0  0  0999 V2000
   -1.5210    1.6032    1.1572 C   0  0  0  0  0  0  0  0  0  0  0  0
   -1.4836    0.0847    1.3046 C   0  0  0  0  0  0  0  0  0  0  0  0
   -0.6882   -0.5274    0.2269 N   0  0  0  0  0  0  0  0  0  0  0  0
    0.7215   -0.2309    0.0868 C   0  0  0  0  0  0  0  0  0  0  0  0
    1.5589   -0.1610    1.2173 C   0  0  0  0  0  0  0  0  0  0  0  0
    2.9183    0.1346    1.0764 C   0  0  0  0  0  0  0  0  0  0  0  0
    3.4587    0.3628   -0.1904 C   0  0  0  0  0  0  0  0  0  0  0  0
    2.6411    0.2940   -1.3199 C   0  0  0  0  0  0  0  0  0  0  0  0
    1.2814   -0.0016   -1.1849 C   0  0  0  0  0  0  0  0  0  0  0  0
   -1.3485   -1.4490   -0.7101 C   0  0  0  0  0  0  0  0  0  0  0  0
   -2.2659   -0.6924   -1.6682 C   0  0  0  0  0  0  0  0  0  0  0  0
   -1.9233    1.8798    0.1597 H   0  0  0  0  0  0  0  0  0  0  0  0
   -0.5023    2.0297    1.2712 H   0  0  0  0  0  0  0  0  0  0  0  0
   -2.1761    2.0378    1.9412 H   0  0  0  0  0  0  0  0  0  0  0  0
   -1.0703   -0.1893    2.2966 H   0  0  0  0  0  0  0  0  0  0  0  0
   -2.5288   -0.2940    1.2822 H   0  0  0  0  0  0  0  0  0  0  0  0
    1.1725   -0.3514    2.2084 H   0  0  0  0  0  0  0  0  0  0  0  0
    3.5542    0.1829    1.9510 H   0  0  0  0  0  0  0  0  0  0  0  0
    4.5113    0.5915   -0.2970 H   0  0  0  0  0  0  0  0  0  0  0  0
    3.0606    0.4723   -2.3016 H   0  0  0  0  0  0  0  0  0  0  0  0
    0.6674   -0.0379   -2.0738 H   0  0  0  0  0  0  0  0  0  0  0  0
   -0.5960   -2.0204   -1.2962 H   0  0  0  0  0  0  0  0  0  0  0  0
   -1.9454   -2.1944   -0.1413 H   0  0  0  0  0  0  0  0  0  0  0  0
   -1.7017    0.0946   -2.2096 H   0  0  0  0  0  0  0  0  0  0  0  0
   -2.6932   -1.3998   -2.4096 H   0  0  0  0  0  0  0  0  0  0  0  0
   -3.1014   -0.2185   -1.1120 H   0  0  0  0  0  0  0  0  0  0  0  0
  1  2  1  0
  2  3  1  0
  3 10  1  0
  3  4  1  0
  4  9  2  0
  4  5  1  0
  5  6  2  0
  6  7  1  0
  7  8  2  0
  8  9  1  0
 10 11  1  0
  1 12  1  0
  1 13  1  0
  1 14  1  0
  2 15  1  0
  2 16  1  0
  5 17  1  0
  6 18  1  0
  7 19  1  0
  8 20  1  0
  9 21  1  0
 10 22  1  0
 10 23  1  0
 11 24  1  0
 11 25  1  0
 11 26  1  0
M  END
$$$$
