c34cc2cc1ccccc1cc2cc3cccc4
     RDKit          3D

 30 33  0  0  0  0  0  0  0  0999 V2000
   -2.4138   -0.7098   -0.3090 C   0  0  0  0  0  0  0  0  0  0  0  0
   -1.1787   -1.3220   -0.5663 C   0  0  0  0  0  0  0  0  0  0  0  0
    0.0193   -0.6510   -0.2772 C   0  0  0  0  0  0  0  0  0  0  0  0
    1.2553   -1.2634   -0.5346 C   0  0  0  0  0  0  0  0  0  0  0  0
    2.4524   -0.5925   -0.2456 C   0  0  0  0  0  0  0  0  0  0  0  0
    3.6915   -1.2013   -0.5015 C   0  0  0  0  0  0  0  0  0  0  0  0
    4.8797   -0.5253   -0.2103 C   0  0  0  0  0  0  0  0  0  0  0  0
    4.8416    0.7596    0.3369 C   0  0  0  0  0  0  0  0  0  0  0  0
    3.6150    1.3774    0.5967 C   0  0  0  0  0  0  0  0  0  0  0  0
    2.4138    0.7098    0.3090 C   0  0  0  0  0  0  0  0  0  0  0  0
    1.1787    1.3220    0.5663 C   0  0  0  0  0  0  0  0  0  0  0  0
   -0.0193    0.6509    0.2772 C   0  0  0  0  0  0  0  0  0  0  0  0
   -1.2553    1.2634    0.5346 C   0  0  0  0  0  0  0  0  0  0  0  0
   -2.4524    0.5925    0.2456 C   0  0  0  0  0  0  0  0  0  0  0  0
   -3.6915    1.2013    0.5015 C   0  0  0  0  0  0  0  0  0  0  0  0
   -4.8797    0.5253    0.2103 C   0  0  0  0  0  0  0  0  0  0  0  0
   -4.8416   -0.7596   -0.3369 C   0  0  0  0  0  0  0  0  0  0  0  0
   -3.6150   -1.3774   -0.5967 C   0  0  0  0  0  0  0  0  0  0  0  0
   -1.1499   -2.3198   -0.9912 H   0  0  0  0  0  0  0  0  0  0  0  0
    1.2858   -2.2611   -0.9595 H   0  0  0  0  0  0  0  0  0  0  0  0
    3.7410   -2.1972   -0.9255 H   0  0  0  0  0  0  0  0  0  0  0  0
    5.8325   -0.9987   -0.4092 H   0  0  0  0  0  0  0  0  0  0  0  0
    5.7650    1.2782    0.5604 H   0  0  0  0  0  0  0  0  0  0  0  0
    3.6054    2.3743    1.0212 H   0  0  0  0  0  0  0  0  0  0  0  0
    1.1499    2.3198    0.9912 H   0  0  0  0  0  0  0  0  0  0  0  0
   -1.2858    2.2611    0.9595 H   0  0  0  0  0  0  0  0  0  0  0  0
   -3.7410    2.1972    0.9255 H   0  0  0  0  0  0  0  0  0  0  0  0
   -5.8325    0.9987    0.4092 H   0  0  0  0  0  0  0  0  0  0  0  0
   -5.7650   -1.2782   -0.5604 H   0  0  0  0  0  0  0  0  0  0  0  0
   -3.6054   -2.3743   -1.0212 H   0  0  0  0  0  0  0  0  0  0  0  0
  1 14  1  0
  1  2  2  0
  1 18  1  0
  2  3  1  0
  3 12  2  0
  3  4  1  0
  4  5  2  0
  5 10  1  0
  5  6  1  0
  6  7  2  0
  7  8  1  0
  8  9  2  0
  9 10  1  0
 10 11  2  0
 11 12  1  0
 12 13  1  0
 13 14  2  0
 14 15  1  0
 15 16  2  0
 16 17  1  0
 17 18  2  0
  2 19  1  0
  4 20  1  0
  6 21  1  0
  7 22  1  0
  8 23  1  0
  9 24  1  0
 11 25  1  0
 13 26  1  0
 15 27  1  0
 16 28  1  0
 17 29  1  0
 18 30  1  0
M  END
$$$$
