Nc1ccc(c3nc2ccc(C)cc2s3)cc1
     RDKit          3D

 29 31  0  0  0  0  0  0  0  0999 V2000
    6.1510   -0.4268   -0.0549 N   0  0  0  0  0  0  0  0  0  0  0  0
    4.7230   -0.3603   -0.0176 C   0  0  0  0  0  0  0  0  0  0  0  0
    4.0808    0.8458    0.2897 C   0  0  0  0  0  0  0  0  0  0  0  0
    2.6848    0.9119    0.3264 C   0  0  0  0  0  0  0  0  0  0  0  0
    1.9080   -0.2291    0.0558 C   0  0  0  0  0  0  0  0  0  0  0  0
    0.4293   -0.1491    0.0972 C   0  0  0  0  0  0  0  0  0  0  0  0
   -0.2446    0.9932    0.3896 N   0  0  0  0  0  0  0  0  0  0  0  0
   -1.5878    0.7984    0.3610 C   0  0  0  0  0  0  0  0  0  0  0  0
   -2.5334    1.7886    0.6265 C   0  0  0  0  0  0  0  0  0  0  0  0
   -3.8974    1.4549    0.5676 C   0  0  0  0  0  0  0  0  0  0  0  0
   -4.3050    0.1422    0.2325 C   0  0  0  0  0  0  0  0  0  0  0  0
   -5.7621   -0.2109    0.2120 C   0  0  0  0  0  0  0  0  0  0  0  0
   -3.3345   -0.8489   -0.0170 C   0  0  0  0  0  0  0  0  0  0  0  0
   -1.9918   -0.4880    0.0490 C   0  0  0  0  0  0  0  0  0  0  0  0
   -0.6351   -1.4392   -0.2048 S   0  0  0  0  0  0  0  0  0  0  0  0
    2.5601   -1.4374   -0.2522 C   0  0  0  0  0  0  0  0  0  0  0  0
    3.9563   -1.5007   -0.2882 C   0  0  0  0  0  0  0  0  0  0  0  0
    6.6388   -1.3217   -0.2831 H   0  0  0  0  0  0  0  0  0  0  0  0
    6.7311    0.4184    0.1454 H   0  0  0  0  0  0  0  0  0  0  0  0
    4.6616    1.7349    0.5008 H   0  0  0  0  0  0  0  0  0  0  0  0
    2.2146    1.8573    0.5667 H   0  0  0  0  0  0  0  0  0  0  0  0
   -2.2246    2.7952    0.8782 H   0  0  0  0  0  0  0  0  0  0  0  0
   -4.6362    2.2170    0.7825 H   0  0  0  0  0  0  0  0  0  0  0  0
   -6.0781   -0.5327    1.2261 H   0  0  0  0  0  0  0  0  0  0  0  0
   -5.9556   -1.0355   -0.5068 H   0  0  0  0  0  0  0  0  0  0  0  0
   -6.3721    0.6645   -0.0973 H   0  0  0  0  0  0  0  0  0  0  0  0
   -3.6178   -1.8667   -0.2545 H   0  0  0  0  0  0  0  0  0  0  0  0
    1.9963   -2.3359   -0.4659 H   0  0  0  0  0  0  0  0  0  0  0  0
    4.4405   -2.4393   -0.5271 H   0  0  0  0  0  0  0  0  0  0  0  0
  1  2  1  0
  2 17  2  0
  2  3  1  0
  3  4  2  0
  4  5  1  0
  5 16  2  0
  5  6  1  0
  6  7  2  0
  6 15  1  0
  7  8  1  0
  8  9  2  0
  8 14  1  0
  9 10  1  0
 10 11  2  0
 11 12  1  0
 11 13  1  0
 13 14  2  0
 14 15  1  0
 16 17  1  0
  1 18  1  0
  1 19  1  0
  3 20  1  0
  4 21  1  0
  9 22  1  0
 10 23  1  0
 12 24  1  0
 12 25  1  0
 12 26  1  0
 13 27  1  0
 16 28  1  0
 17 29  1  0
M  END
$$$$
