c1(c2ccccc2)ccccc1
     RDKit          3D

 22 23  0  0  0  0  0  0  0  0999 V2000
   -0.7402   -0.0061    0.0963 C   0  0  0  0  0  0  0  0  0  0  0  0
    0.7402    0.0061   -0.0255 C   0  0  0  0  0  0  0  0  0  0  0  0
    1.4342    1.2185   -0.2017 C   0  0  0  0  0  0  0  0  0  0  0  0
    2.8277    1.2268   -0.3165 C   0  0  0  0  0  0  0  0  0  0  0  0
    3.5433    0.0291   -0.2561 C   0  0  0  0  0  0  0  0  0  0  0  0
    2.8668   -1.1801   -0.0811 C   0  0  0  0  0  0  0  0  0  0  0  0
    1.4733   -1.1946    0.0334 C   0  0  0  0  0  0  0  0  0  0  0  0
   -1.5023   -1.0085   -0.5338 C   0  0  0  0  0  0  0  0  0  0  0  0
   -2.8957   -1.0171   -0.4178 C   0  0  0  0  0  0  0  0  0  0  0  0
   -3.5433   -0.0291    0.3270 C   0  0  0  0  0  0  0  0  0  0  0  0
   -2.7989    0.9704    0.9572 C   0  0  0  0  0  0  0  0  0  0  0  0
   -1.4053    0.9846    0.8439 C   0  0  0  0  0  0  0  0  0  0  0  0
    0.8987    2.1571   -0.2686 H   0  0  0  0  0  0  0  0  0  0  0  0
    3.3528    2.1630   -0.4560 H   0  0  0  0  0  0  0  0  0  0  0  0
    4.6220    0.0379   -0.3448 H   0  0  0  0  0  0  0  0  0  0  0  0
    3.4229   -2.1074   -0.0306 H   0  0  0  0  0  0  0  0  0  0  0  0
    0.9714   -2.1418    0.1857 H   0  0  0  0  0  0  0  0  0  0  0  0
   -1.0228   -1.7744   -1.1303 H   0  0  0  0  0  0  0  0  0  0  0  0
   -3.4740   -1.7890   -0.9089 H   0  0  0  0  0  0  0  0  0  0  0  0
   -4.6220   -0.0379    0.4157 H   0  0  0  0  0  0  0  0  0  0  0  0
   -3.3017    1.7335    1.5373 H   0  0  0  0  0  0  0  0  0  0  0  0
   -0.8473    1.7590    1.3551 H   0  0  0  0  0  0  0  0  0  0  0  0
  1  2  1  0
  1 12  1  0
  1  8  2  0
  2  7  1  0
  2  3  2  0
  3  4  1  0
  4  5  2  0
  5  6  1  0
  6  7  2  0
  8  9  1  0
  9 10  2  0
 10 11  1  0
 11 12  2  0
  3 13  1  0
  4 14  1  0
  5 15  1  0
  6 16  1  0
  7 17  1  0
  8 18  1  0
  9 19  1  0
 10 20  1  0
 11 21  1  0
 12 22  1  0
M  END
$$$$
