O=C(OC)c1ccccc1
     RDKit          3D

 18 18  0  0  0  0  0  0  0  0999 V2000
    1.8476   -1.4470    0.4114 O   0  0  0  0  0  0  0  0  0  0  0  0
    1.2801   -0.3697    0.0787 C   0  0  0  0  0  0  0  0  0  0  0  0
    2.0475    0.7352   -0.3065 O   0  0  0  0  0  0  0  0  0  0  0  0
    3.4693    0.7073   -0.3438 C   0  0  0  0  0  0  0  0  0  0  0  0
   -0.1962   -0.2720    0.0951 C   0  0  0  0  0  0  0  0  0  0  0  0
   -0.9853   -1.3728    0.4797 C   0  0  0  0  0  0  0  0  0  0  0  0
   -2.3802   -1.2730    0.4927 C   0  0  0  0  0  0  0  0  0  0  0  0
   -3.0010   -0.0777    0.1233 C   0  0  0  0  0  0  0  0  0  0  0  0
   -2.2282    1.0207   -0.2600 C   0  0  0  0  0  0  0  0  0  0  0  0
   -0.8330    0.9268   -0.2750 C   0  0  0  0  0  0  0  0  0  0  0  0
    3.8157   -0.0696   -1.0579 H   0  0  0  0  0  0  0  0  0  0  0  0
    3.8721    0.4933    0.6688 H   0  0  0  0  0  0  0  0  0  0  0  0
    3.8445    1.6961   -0.6785 H   0  0  0  0  0  0  0  0  0  0  0  0
   -0.5263   -2.3095    0.7701 H   0  0  0  0  0  0  0  0  0  0  0  0
   -2.9801   -2.1236    0.7896 H   0  0  0  0  0  0  0  0  0  0  0  0
   -4.0807   -0.0026    0.1341 H   0  0  0  0  0  0  0  0  0  0  0  0
   -2.7106    1.9465   -0.5461 H   0  0  0  0  0  0  0  0  0  0  0  0
   -0.2552    1.7917   -0.5758 H   0  0  0  0  0  0  0  0  0  0  0  0
  1  2  2  0
  2  5  1  0
  2  3  1  0
  3  4  1  0
  5 10  2  0
  5  6  1  0
  6  7  2  0
  7  8  1  0
  8  9  2  0
  9 10  1  0
  4 11  1  0
  4 12  1  0
  4 13  1  0
  6 14  1  0
  7 15  1  0
  8 16  1  0
  9 17  1  0
 10 18  1  0
M  END
$$$$
