O=C(c1cccnc1)OC
     RDKit          3D

 17 17  0  0  0  0  0  0  0  0999 V2000
    1.6641   -0.6755    1.2469 O   0  0  0  0  0  0  0  0  0  0  0  0
    1.1006   -0.2698    0.1927 C   0  0  0  0  0  0  0  0  0  0  0  0
   -0.3507    0.0156    0.1899 C   0  0  0  0  0  0  0  0  0  0  0  0
   -1.1249   -0.1575    1.3499 C   0  0  0  0  0  0  0  0  0  0  0  0
   -2.4934    0.1172    1.3269 C   0  0  0  0  0  0  0  0  0  0  0  0
   -3.0816    0.5640    0.1434 C   0  0  0  0  0  0  0  0  0  0  0  0
   -2.3242    0.7281   -0.9728 N   0  0  0  0  0  0  0  0  0  0  0  0
   -0.9893    0.4677   -0.9775 C   0  0  0  0  0  0  0  0  0  0  0  0
    1.8485   -0.0891   -0.9759 O   0  0  0  0  0  0  0  0  0  0  0  0
    3.2463   -0.3451   -1.0403 C   0  0  0  0  0  0  0  0  0  0  0  0
   -0.6748   -0.5040    2.2718 H   0  0  0  0  0  0  0  0  0  0  0  0
   -3.0926   -0.0150    2.2185 H   0  0  0  0  0  0  0  0  0  0  0  0
   -4.1410    0.7806    0.1116 H   0  0  0  0  0  0  0  0  0  0  0  0
   -0.4312    0.6147   -1.8929 H   0  0  0  0  0  0  0  0  0  0  0  0
    3.6095   -0.1290   -2.0660 H   0  0  0  0  0  0  0  0  0  0  0  0
    3.4489   -1.4111   -0.8039 H   0  0  0  0  0  0  0  0  0  0  0  0
    3.7859    0.3081   -0.3223 H   0  0  0  0  0  0  0  0  0  0  0  0
  1  2  2  0
  2  3  1  0
  2  9  1  0
  3  4  2  0
  3  8  1  0
  4  5  1  0
  5  6  2  0
  6  7  1  0
  7  8  2  0
  9 10  1  0
  4 11  1  0
  5 12  1  0
  6 13  1  0
  8 14  1  0
 10 15  1  0
 10 16  1  0
 10 17  1  0
M  END
$$$$
