O=C(OCC)c1ccccc1
     RDKit          3D

 21 21  0  0  0  0  0  0  0  0999 V2000
    1.1481   -1.3946    0.9207 O   0  0  0  0  0  0  0  0  0  0  0  0
    0.6386   -0.5760    0.1062 C   0  0  0  0  0  0  0  0  0  0  0  0
    1.4573    0.1335   -0.7820 O   0  0  0  0  0  0  0  0  0  0  0  0
    2.8801    0.0348   -0.7912 C   0  0  0  0  0  0  0  0  0  0  0  0
    3.4808    0.8130    0.3737 C   0  0  0  0  0  0  0  0  0  0  0  0
   -0.8261   -0.3685    0.0818 C   0  0  0  0  0  0  0  0  0  0  0  0
   -1.3992    0.5434   -0.8236 C   0  0  0  0  0  0  0  0  0  0  0  0
   -2.7834    0.7414   -0.8476 C   0  0  0  0  0  0  0  0  0  0  0  0
   -3.6083    0.0336    0.0295 C   0  0  0  0  0  0  0  0  0  0  0  0
   -3.0509   -0.8740    0.9328 C   0  0  0  0  0  0  0  0  0  0  0  0
   -1.6674   -1.0761    0.9614 C   0  0  0  0  0  0  0  0  0  0  0  0
    3.2580    0.4676   -1.7413 H   0  0  0  0  0  0  0  0  0  0  0  0
    3.1955   -1.0304   -0.7483 H   0  0  0  0  0  0  0  0  0  0  0  0
    4.5890    0.7720    0.3180 H   0  0  0  0  0  0  0  0  0  0  0  0
    3.1563    0.3754    1.3407 H   0  0  0  0  0  0  0  0  0  0  0  0
    3.1569    1.8743    0.3271 H   0  0  0  0  0  0  0  0  0  0  0  0
   -0.7801    1.1038   -1.5128 H   0  0  0  0  0  0  0  0  0  0  0  0
   -3.2166    1.4447   -1.5471 H   0  0  0  0  0  0  0  0  0  0  0  0
   -4.6793    0.1886    0.0091 H   0  0  0  0  0  0  0  0  0  0  0  0
   -3.6912   -1.4218    1.6121 H   0  0  0  0  0  0  0  0  0  0  0  0
   -1.2579   -1.7847    1.6704 H   0  0  0  0  0  0  0  0  0  0  0  0
  1  2  2  0
  2  6  1  0
  2  3  1  0
  3  4  1  0
  4  5  1  0
  6 11  2  0
  6  7  1  0
  7  8  2  0
  8  9  1  0
  9 10  2  0
 10 11  1  0
  4 12  1  0
  4 13  1  0
  5 14  1  0
  5 15  1  0
  5 16  1  0
  7 17  1  0
  8 18  1  0
  9 19  1  0
 10 20  1  0
 11 21  1  0
M  END
$$$$
