O=C(c(cc1)ccc1N)OCCC
     RDKit          3D

 26 26  0  0  0  0  0  0  0  0999 V2000
   -0.7391   -0.6063   -1.7688 O   0  0  0  0  0  0  0  0  0  0  0  0
   -0.3339    0.0547   -0.7728 C   0  0  0  0  0  0  0  0  0  0  0  0
    1.0810   -0.0342   -0.3495 C   0  0  0  0  0  0  0  0  0  0  0  0
    1.5372    0.6991    0.7601 C   0  0  0  0  0  0  0  0  0  0  0  0
    2.8734    0.6167    1.1634 C   0  0  0  0  0  0  0  0  0  0  0  0
    1.9896   -0.8516   -1.0464 C   0  0  0  0  0  0  0  0  0  0  0  0
    3.3253   -0.9322   -0.6410 C   0  0  0  0  0  0  0  0  0  0  0  0
    3.7735   -0.1988    0.4652 C   0  0  0  0  0  0  0  0  0  0  0  0
    5.1398   -0.2821    0.8789 N   0  0  0  0  0  0  0  0  0  0  0  0
   -1.2207    0.8800   -0.0692 O   0  0  0  0  0  0  0  0  0  0  0  0
   -2.6104    0.9824   -0.3732 C   0  0  0  0  0  0  0  0  0  0  0  0
   -3.3631   -0.2490    0.1379 C   0  0  0  0  0  0  0  0  0  0  0  0
   -4.8602   -0.1327   -0.1324 C   0  0  0  0  0  0  0  0  0  0  0  0
    0.8629    1.3367    1.3180 H   0  0  0  0  0  0  0  0  0  0  0  0
    3.2070    1.1885    2.0202 H   0  0  0  0  0  0  0  0  0  0  0  0
    1.6694   -1.4291   -1.9046 H   0  0  0  0  0  0  0  0  0  0  0  0
    4.0107   -1.5663   -1.1892 H   0  0  0  0  0  0  0  0  0  0  0  0
    5.4832    0.2609    1.7024 H   0  0  0  0  0  0  0  0  0  0  0  0
    5.8182   -0.8873    0.3647 H   0  0  0  0  0  0  0  0  0  0  0  0
   -2.7545    1.1050   -1.4693 H   0  0  0  0  0  0  0  0  0  0  0  0
   -3.0099    1.8889    0.1298 H   0  0  0  0  0  0  0  0  0  0  0  0
   -3.1977   -0.3538    1.2320 H   0  0  0  0  0  0  0  0  0  0  0  0
   -2.9770   -1.1621   -0.3632 H   0  0  0  0  0  0  0  0  0  0  0  0
   -5.0492   -0.0468   -1.2237 H   0  0  0  0  0  0  0  0  0  0  0  0
   -5.2778    0.7579    0.3839 H   0  0  0  0  0  0  0  0  0  0  0  0
   -5.3778   -1.0385    0.2477 H   0  0  0  0  0  0  0  0  0  0  0  0
  1  2  2  0
  2  3  1  0
  2 10  1  0
  3  4  2  0
  3  6  1  0
  4  5  1  0
  5  8  2  0
  6  7  2  0
  7  8  1  0
  8  9  1  0
 10 11  1  0
 11 12  1  0
 12 13  1  0
  4 14  1  0
  5 15  1  0
  6 16  1  0
  7 17  1  0
  9 18  1  0
  9 19  1  0
 11 20  1  0
 11 21  1  0
 12 22  1  0
 12 23  1  0
 13 24  1  0
 13 25  1  0
 13 26  1  0
M  END
$$$$
