Oc1ccc(C(OCCCC)=O)cc1
     RDKit          3D

 28 28  0  0  0  0  0  0  0  0999 V2000
   -6.0050    0.0904    0.4369 O   0  0  0  0  0  0  0  0  0  0  0  0
   -4.6217   -0.0720    0.4092 C   0  0  0  0  0  0  0  0  0  0  0  0
   -3.9738   -0.6631    1.4975 C   0  0  0  0  0  0  0  0  0  0  0  0
   -2.5859   -0.8327    1.4840 C   0  0  0  0  0  0  0  0  0  0  0  0
   -1.8272   -0.4111    0.3763 C   0  0  0  0  0  0  0  0  0  0  0  0
   -0.3583   -0.5865    0.3556 C   0  0  0  0  0  0  0  0  0  0  0  0
    0.3776   -0.1661   -0.7600 O   0  0  0  0  0  0  0  0  0  0  0  0
    1.7994   -0.2457   -0.8403 C   0  0  0  0  0  0  0  0  0  0  0  0
    2.4453    0.8573    0.0077 C   0  0  0  0  0  0  0  0  0  0  0  0
    3.9677    0.9335   -0.1816 C   0  0  0  0  0  0  0  0  0  0  0  0
    4.6985   -0.2578    0.4369 C   0  0  0  0  0  0  0  0  0  0  0  0
    0.2293   -1.1190    1.3376 O   0  0  0  0  0  0  0  0  0  0  0  0
   -2.4865    0.1830   -0.7147 C   0  0  0  0  0  0  0  0  0  0  0  0
   -3.8746    0.3509   -0.6975 C   0  0  0  0  0  0  0  0  0  0  0  0
   -6.5038    0.5152   -0.3362 H   0  0  0  0  0  0  0  0  0  0  0  0
   -4.5466   -0.9916    2.3555 H   0  0  0  0  0  0  0  0  0  0  0  0
   -2.1083   -1.2932    2.3398 H   0  0  0  0  0  0  0  0  0  0  0  0
    2.1385   -1.2517   -0.5130 H   0  0  0  0  0  0  0  0  0  0  0  0
    2.0936   -0.1108   -1.9028 H   0  0  0  0  0  0  0  0  0  0  0  0
    2.0074    1.8336   -0.2941 H   0  0  0  0  0  0  0  0  0  0  0  0
    2.2076    0.7016    1.0820 H   0  0  0  0  0  0  0  0  0  0  0  0
    4.2166    1.0033   -1.2628 H   0  0  0  0  0  0  0  0  0  0  0  0
    4.3362    1.8607    0.3083 H   0  0  0  0  0  0  0  0  0  0  0  0
    4.4546   -1.1939   -0.1066 H   0  0  0  0  0  0  0  0  0  0  0  0
    4.4245   -0.3689    1.5076 H   0  0  0  0  0  0  0  0  0  0  0  0
    5.7946   -0.0940    0.3683 H   0  0  0  0  0  0  0  0  0  0  0  0
   -1.9316    0.5188   -1.5817 H   0  0  0  0  0  0  0  0  0  0  0  0
   -4.3681    0.8099   -1.5447 H   0  0  0  0  0  0  0  0  0  0  0  0
  1  2  1  0
  2 14  2  0
  2  3  1  0
  3  4  2  0
  4  5  1  0
  5 13  2  0
  5  6  1  0
  6 12  2  0
  6  7  1  0
  7  8  1  0
  8  9  1  0
  9 10  1  0
 10 11  1  0
 13 14  1  0
  1 15  1  0
  3 16  1  0
  4 17  1  0
  8 18  1  0
  8 19  1  0
  9 20  1  0
  9 21  1  0
 10 22  1  0
 10 23  1  0
 11 24  1  0
 11 25  1  0
 11 26  1  0
 13 27  1  0
 14 28  1  0
M  END
$$$$
