Clc1c(OCC(O)=O)ccc(Cl)c1
     RDKit          3D

 19 19  0  0  0  0  0  0  0  0999 V2000
   -0.9684   -0.4684    2.8204 Cl  0  0  0  0  0  0  0  0  0  0  0  0
   -1.3854   -0.3598    1.1169 C   0  0  0  0  0  0  0  0  0  0  0  0
   -0.4086   -0.0248    0.1647 C   0  0  0  0  0  0  0  0  0  0  0  0
    0.9031    0.2205    0.6004 O   0  0  0  0  0  0  0  0  0  0  0  0
    1.9872    0.5686   -0.2560 C   0  0  0  0  0  0  0  0  0  0  0  0
    3.2218    0.7656    0.5647 C   0  0  0  0  0  0  0  0  0  0  0  0
    4.3402   -0.0428    0.3804 O   0  0  0  0  0  0  0  0  0  0  0  0
    3.2533    1.6751    1.4348 O   0  0  0  0  0  0  0  0  0  0  0  0
   -0.7742    0.0546   -1.1942 C   0  0  0  0  0  0  0  0  0  0  0  0
   -2.0921   -0.1974   -1.5862 C   0  0  0  0  0  0  0  0  0  0  0  0
   -3.0570   -0.5301   -0.6317 C   0  0  0  0  0  0  0  0  0  0  0  0
   -4.7099   -0.8456   -1.1272 Cl  0  0  0  0  0  0  0  0  0  0  0  0
   -2.7034   -0.6110    0.7182 C   0  0  0  0  0  0  0  0  0  0  0  0
    1.7572    1.5142   -0.7925 H   0  0  0  0  0  0  0  0  0  0  0  0
    2.1499   -0.2416   -0.9986 H   0  0  0  0  0  0  0  0  0  0  0  0
    4.3484   -0.7846   -0.3092 H   0  0  0  0  0  0  0  0  0  0  0  0
   -0.0488    0.3098   -1.9543 H   0  0  0  0  0  0  0  0  0  0  0  0
   -2.3618   -0.1336   -2.6328 H   0  0  0  0  0  0  0  0  0  0  0  0
   -3.4517   -0.8688    1.4571 H   0  0  0  0  0  0  0  0  0  0  0  0
  1  2  1  0
  2 13  2  0
  2  3  1  0
  3  9  2  0
  3  4  1  0
  4  5  1  0
  5  6  1  0
  6  7  1  0
  6  8  2  0
  9 10  1  0
 10 11  2  0
 11 13  1  0
 11 12  1  0
  5 14  1  0
  5 15  1  0
  7 16  1  0
  9 17  1  0
 10 18  1  0
 13 19  1  0
M  END
$$$$
