O=C(O)COc(ccc(Cl)c1)c1C
     RDKit          3D

 22 22  0  0  0  0  0  0  0  0999 V2000
    3.5510    0.6348   -2.3694 O   0  0  0  0  0  0  0  0  0  0  0  0
    3.2749    0.2666   -1.1974 C   0  0  0  0  0  0  0  0  0  0  0  0
    4.0372   -0.7291   -0.5943 O   0  0  0  0  0  0  0  0  0  0  0  0
    2.1092    0.8665   -0.4806 C   0  0  0  0  0  0  0  0  0  0  0  0
    1.0162   -0.0456   -0.5222 O   0  0  0  0  0  0  0  0  0  0  0  0
   -0.2398    0.1862    0.0628 C   0  0  0  0  0  0  0  0  0  0  0  0
   -0.5294    1.3785    0.7560 C   0  0  0  0  0  0  0  0  0  0  0  0
   -1.7892    1.5769    1.3256 C   0  0  0  0  0  0  0  0  0  0  0  0
   -2.7734    0.5931    1.2122 C   0  0  0  0  0  0  0  0  0  0  0  0
   -4.3542    0.8475    1.9292 Cl  0  0  0  0  0  0  0  0  0  0  0  0
   -2.4988   -0.5937    0.5274 C   0  0  0  0  0  0  0  0  0  0  0  0
   -1.2352   -0.8051   -0.0495 C   0  0  0  0  0  0  0  0  0  0  0  0
   -0.9470   -2.0838   -0.7849 C   0  0  0  0  0  0  0  0  0  0  0  0
    3.8238   -1.0572    0.3401 H   0  0  0  0  0  0  0  0  0  0  0  0
    1.8205    1.8238   -0.9669 H   0  0  0  0  0  0  0  0  0  0  0  0
    2.3955    1.0652    0.5744 H   0  0  0  0  0  0  0  0  0  0  0  0
    0.2120    2.1586    0.8603 H   0  0  0  0  0  0  0  0  0  0  0  0
   -1.9991    2.4974    1.8556 H   0  0  0  0  0  0  0  0  0  0  0  0
   -3.2706   -1.3493    0.4460 H   0  0  0  0  0  0  0  0  0  0  0  0
   -0.0942   -2.6077   -0.3038 H   0  0  0  0  0  0  0  0  0  0  0  0
   -0.6860   -1.8571   -1.8401 H   0  0  0  0  0  0  0  0  0  0  0  0
   -1.8234   -2.7663   -0.7804 H   0  0  0  0  0  0  0  0  0  0  0  0
  1  2  2  0
  2  4  1  0
  2  3  1  0
  4  5  1  0
  5  6  1  0
  6  7  2  0
  6 12  1  0
  7  8  1  0
  8  9  2  0
  9 11  1  0
  9 10  1  0
 11 12  2  0
 12 13  1  0
  3 14  1  0
  4 15  1  0
  4 16  1  0
  7 17  1  0
  8 18  1  0
 11 19  1  0
 13 20  1  0
 13 21  1  0
 13 22  1  0
M  END
$$$$
