Clc1c(ccc(Cl)c1)OCCCC(O)=O
     RDKit          3D

 25 25  0  0  0  0  0  0  0  0999 V2000
   -2.4891   -1.2218   -2.7237 Cl  0  0  0  0  0  0  0  0  0  0  0  0
   -2.6803   -0.2348   -1.2826 C   0  0  0  0  0  0  0  0  0  0  0  0
   -1.5649    0.1051   -0.4993 C   0  0  0  0  0  0  0  0  0  0  0  0
   -1.7504    0.8981    0.6510 C   0  0  0  0  0  0  0  0  0  0  0  0
   -3.0286    1.3391    1.0054 C   0  0  0  0  0  0  0  0  0  0  0  0
   -4.1324    0.9959    0.2200 C   0  0  0  0  0  0  0  0  0  0  0  0
   -5.7351    1.5510    0.6676 Cl  0  0  0  0  0  0  0  0  0  0  0  0
   -3.9577    0.2098   -0.9225 C   0  0  0  0  0  0  0  0  0  0  0  0
   -0.2989   -0.3583   -0.8903 O   0  0  0  0  0  0  0  0  0  0  0  0
    0.9119   -0.0891   -0.1887 C   0  0  0  0  0  0  0  0  0  0  0  0
    2.0779   -0.7601   -0.9168 C   0  0  0  0  0  0  0  0  0  0  0  0
    3.4271   -0.4632   -0.2486 C   0  0  0  0  0  0  0  0  0  0  0  0
    3.5353   -1.1042    1.1057 C   0  0  0  0  0  0  0  0  0  0  0  0
    3.6470   -0.3263    2.2548 O   0  0  0  0  0  0  0  0  0  0  0  0
    3.5310   -2.3593    1.2079 O   0  0  0  0  0  0  0  0  0  0  0  0
   -0.9148    1.1790    1.2772 H   0  0  0  0  0  0  0  0  0  0  0  0
   -3.1596    1.9478    1.8911 H   0  0  0  0  0  0  0  0  0  0  0  0
   -4.8136   -0.0556   -1.5304 H   0  0  0  0  0  0  0  0  0  0  0  0
    1.0813    1.0093   -0.1501 H   0  0  0  0  0  0  0  0  0  0  0  0
    0.8353   -0.4898    0.8454 H   0  0  0  0  0  0  0  0  0  0  0  0
    2.1106   -0.3804   -1.9613 H   0  0  0  0  0  0  0  0  0  0  0  0
    1.9088   -1.8583   -0.9621 H   0  0  0  0  0  0  0  0  0  0  0  0
    4.2442   -0.8556   -0.8912 H   0  0  0  0  0  0  0  0  0  0  0  0
    3.5679    0.6363   -0.1672 H   0  0  0  0  0  0  0  0  0  0  0  0
    3.6471    0.6855    2.2088 H   0  0  0  0  0  0  0  0  0  0  0  0
  1  2  1  0
  2  8  2  0
  2  3  1  0
  3  4  2  0
  3  9  1  0
  4  5  1  0
  5  6  2  0
  6  8  1  0
  6  7  1  0
  9 10  1  0
 10 11  1  0
 11 12  1  0
 12 13  1  0
 13 14  1  0
 13 15  2  0
  4 16  1  0
  5 17  1  0
  8 18  1  0
 10 19  1  0
 10 20  1  0
 11 21  1  0
 11 22  1  0
 12 23  1  0
 12 24  1  0
 14 25  1  0
M  END
$$$$
