c12ccccc1[nH]nn2
     RDKit          3D

 14 15  0  0  0  0  0  0  0  0999 V2000
   -0.7653    0.7741    0.0144 C   0  0  0  0  0  0  0  0  0  0  0  0
    0.3558    1.5953    0.0873 C   0  0  0  0  0  0  0  0  0  0  0  0
    1.6178    0.9666    0.0947 C   0  0  0  0  0  0  0  0  0  0  0  0
    1.7180   -0.4453    0.0298 C   0  0  0  0  0  0  0  0  0  0  0  0
    0.5573   -1.2414   -0.0431 C   0  0  0  0  0  0  0  0  0  0  0  0
   -0.6666   -0.5793   -0.0477 C   0  0  0  0  0  0  0  0  0  0  0  0
   -1.9077   -1.0756   -0.1086 N   0  0  0  0  0  0  0  0  0  0  0  0
   -2.7355   -0.0350   -0.0832 N   0  0  0  0  0  0  0  0  0  0  0  0
   -2.0656    1.1150   -0.0079 N   0  0  0  0  0  0  0  0  0  0  0  0
    0.2634    2.6724    0.1364 H   0  0  0  0  0  0  0  0  0  0  0  0
    2.5163    1.5672    0.1504 H   0  0  0  0  0  0  0  0  0  0  0  0
    2.6924   -0.9160    0.0362 H   0  0  0  0  0  0  0  0  0  0  0  0
    0.6159   -2.3209   -0.0933 H   0  0  0  0  0  0  0  0  0  0  0  0
   -2.1964   -2.0772   -0.1654 H   0  0  0  0  0  0  0  0  0  0  0  0
  1  9  1  0
  1  6  1  0
  1  2  2  0
  2  3  1  0
  3  4  2  0
  4  5  1  0
  5  6  2  0
  6  7  1  0
  7  8  1  0
  8  9  2  0
  2 10  1  0
  3 11  1  0
  4 12  1  0
  5 13  1  0
  7 14  1  0
M  END
$$$$
