c12ccccc1scn2
     RDKit          3D

 14 15  0  0  0  0  0  0  0  0999 V2000
    0.6681   -0.5349   -0.0044 C   0  0  0  0  0  0  0  0  0  0  0  0
   -0.3887   -1.4190    0.2209 C   0  0  0  0  0  0  0  0  0  0  0  0
   -1.6949   -0.9043    0.2966 C   0  0  0  0  0  0  0  0  0  0  0  0
   -1.9277    0.4779    0.1472 C   0  0  0  0  0  0  0  0  0  0  0  0
   -0.8566    1.3573   -0.0791 C   0  0  0  0  0  0  0  0  0  0  0  0
    0.4267    0.8212   -0.1496 C   0  0  0  0  0  0  0  0  0  0  0  0
    1.8841    1.6097   -0.4060 S   0  0  0  0  0  0  0  0  0  0  0  0
    2.7706    0.1692   -0.3197 C   0  0  0  0  0  0  0  0  0  0  0  0
    1.9714   -0.9035   -0.0982 N   0  0  0  0  0  0  0  0  0  0  0  0
   -0.2085   -2.4802    0.3355 H   0  0  0  0  0  0  0  0  0  0  0  0
   -2.5270   -1.5739    0.4708 H   0  0  0  0  0  0  0  0  0  0  0  0
   -2.9370    0.8637    0.2072 H   0  0  0  0  0  0  0  0  0  0  0  0
   -1.0247    2.4201   -0.1951 H   0  0  0  0  0  0  0  0  0  0  0  0
    3.8442    0.0967   -0.4261 H   0  0  0  0  0  0  0  0  0  0  0  0
  1  9  1  0
  1  6  1  0
  1  2  2  0
  2  3  1  0
  3  4  2  0
  4  5  1  0
  5  6  2  0
  6  7  1  0
  7  8  1  0
  8  9  2  0
  2 10  1  0
  3 11  1  0
  4 12  1  0
  5 13  1  0
  8 14  1  0
M  END
$$$$
