Cc(cccc1)c1Cl
     RDKit          3D

 15 15  0  0  0  0  0  0  0  0999 V2000
   -2.2036   -0.1155    0.0744 C   0  0  0  0  0  0  0  0  0  0  0  0
   -0.7021   -0.0572    0.0230 C   0  0  0  0  0  0  0  0  0  0  0  0
    0.0441   -1.2470   -0.0427 C   0  0  0  0  0  0  0  0  0  0  0  0
    1.4402   -1.2043   -0.0908 C   0  0  0  0  0  0  0  0  0  0  0  0
    2.1041    0.0236   -0.0739 C   0  0  0  0  0  0  0  0  0  0  0  0
    1.3739    1.2126   -0.0088 C   0  0  0  0  0  0  0  0  0  0  0  0
   -0.0253    1.1808    0.0398 C   0  0  0  0  0  0  0  0  0  0  0  0
   -0.9003    2.7062    0.1212 Cl  0  0  0  0  0  0  0  0  0  0  0  0
   -2.6295    0.4212   -0.7993 H   0  0  0  0  0  0  0  0  0  0  0  0
   -2.5653    0.3616    1.0094 H   0  0  0  0  0  0  0  0  0  0  0  0
   -2.5739   -1.1626    0.0530 H   0  0  0  0  0  0  0  0  0  0  0  0
   -0.4528   -2.2092   -0.0567 H   0  0  0  0  0  0  0  0  0  0  0  0
    2.0077   -2.1246   -0.1413 H   0  0  0  0  0  0  0  0  0  0  0  0
    3.1854    0.0543   -0.1113 H   0  0  0  0  0  0  0  0  0  0  0  0
    1.8974    2.1602    0.0039 H   0  0  0  0  0  0  0  0  0  0  0  0
  1  2  1  0
  2  3  2  0
  2  7  1  0
  3  4  1  0
  4  5  2  0
  5  6  1  0
  6  7  2  0
  7  8  1  0
  1  9  1  0
  1 10  1  0
  1 11  1  0
  3 12  1  0
  4 13  1  0
  5 14  1  0
  6 15  1  0
M  END
$$$$
