Nc(cccc1)c1N
     RDKit          3D

 16 16  0  0  0  0  0  0  0  0999 V2000
   -1.3792   -1.7383    0.2606 N   0  0  0  0  0  0  0  0  0  0  0  0
   -0.3271   -0.7774    0.0959 C   0  0  0  0  0  0  0  0  0  0  0  0
    0.9928   -1.2401   -0.0370 C   0  0  0  0  0  0  0  0  0  0  0  0
    2.0437   -0.3450   -0.2446 C   0  0  0  0  0  0  0  0  0  0  0  0
    1.7900    1.0236   -0.3224 C   0  0  0  0  0  0  0  0  0  0  0  0
    0.4861    1.5019   -0.1818 C   0  0  0  0  0  0  0  0  0  0  0  0
   -0.5823    0.6165    0.0386 C   0  0  0  0  0  0  0  0  0  0  0  0
   -1.8973    1.1584    0.2240 N   0  0  0  0  0  0  0  0  0  0  0  0
   -2.3870   -1.4919    0.1679 H   0  0  0  0  0  0  0  0  0  0  0  0
   -1.1521   -2.7500    0.3873 H   0  0  0  0  0  0  0  0  0  0  0  0
    1.2058   -2.3009    0.0079 H   0  0  0  0  0  0  0  0  0  0  0  0
    3.0557   -0.7141   -0.3509 H   0  0  0  0  0  0  0  0  0  0  0  0
    2.6055    1.7161   -0.4865 H   0  0  0  0  0  0  0  0  0  0  0  0
    0.3084    2.5689   -0.2319 H   0  0  0  0  0  0  0  0  0  0  0  0
   -2.0687    2.1799    0.0892 H   0  0  0  0  0  0  0  0  0  0  0  0
   -2.6944    0.5925    0.5837 H   0  0  0  0  0  0  0  0  0  0  0  0
  1  2  1  0
  2  3  2  0
  2  7  1  0
  3  4  1  0
  4  5  2  0
  5  6  1  0
  6  7  2  0
  7  8  1  0
  1  9  1  0
  1 10  1  0
  3 11  1  0
  4 12  1  0
  5 13  1  0
  6 14  1  0
  8 15  1  0
  8 16  1  0
M  END
$$$$
