Clc1c(Cl)cccc1
     RDKit          3D

 12 12  0  0  0  0  0  0  0  0999 V2000
    2.6604   -1.5454   -0.1552 Cl  0  0  0  0  0  0  0  0  0  0  0  0
    1.1369   -0.6731   -0.2547 C   0  0  0  0  0  0  0  0  0  0  0  0
    1.1031    0.7101   -0.5084 C   0  0  0  0  0  0  0  0  0  0  0  0
    2.5827    1.6320   -0.7380 Cl  0  0  0  0  0  0  0  0  0  0  0  0
   -0.1283    1.3734   -0.5811 C   0  0  0  0  0  0  0  0  0  0  0  0
   -1.3204    0.6655   -0.4026 C   0  0  0  0  0  0  0  0  0  0  0  0
   -1.2869   -0.7085   -0.1506 C   0  0  0  0  0  0  0  0  0  0  0  0
   -0.0611   -1.3765   -0.0768 C   0  0  0  0  0  0  0  0  0  0  0  0
   -0.1627    2.4378   -0.7760 H   0  0  0  0  0  0  0  0  0  0  0  0
   -2.2700    1.1818   -0.4596 H   0  0  0  0  0  0  0  0  0  0  0  0
   -2.2104   -1.2557   -0.0126 H   0  0  0  0  0  0  0  0  0  0  0  0
   -0.0434   -2.4412    0.1188 H   0  0  0  0  0  0  0  0  0  0  0  0
  1  2  1  0
  2  8  2  0
  2  3  1  0
  3  4  1  0
  3  5  2  0
  5  6  1  0
  6  7  2  0
  7  8  1  0
  5  9  1  0
  6 10  1  0
  7 11  1  0
  8 12  1  0
M  END
$$$$
