Cc(cc(C)cc1)c1C
     RDKit          3D

 21 21  0  0  0  0  0  0  0  0999 V2000
   -1.5167    1.8893    0.2145 C   0  0  0  0  0  0  0  0  0  0  0  0
   -0.5865    0.7127    0.0732 C   0  0  0  0  0  0  0  0  0  0  0  0
    0.8020    0.9314    0.0406 C   0  0  0  0  0  0  0  0  0  0  0  0
    1.6936   -0.1414   -0.0985 C   0  0  0  0  0  0  0  0  0  0  0  0
    3.1742    0.1014   -0.0926 C   0  0  0  0  0  0  0  0  0  0  0  0
    1.1941   -1.4472   -0.1732 C   0  0  0  0  0  0  0  0  0  0  0  0
   -0.1820   -1.6784   -0.1422 C   0  0  0  0  0  0  0  0  0  0  0  0
   -1.0849   -0.6088   -0.0234 C   0  0  0  0  0  0  0  0  0  0  0  0
   -2.5642   -0.8909    0.0092 C   0  0  0  0  0  0  0  0  0  0  0  0
   -2.1910    1.9447   -0.6655 H   0  0  0  0  0  0  0  0  0  0  0  0
   -0.9598    2.8481    0.2804 H   0  0  0  0  0  0  0  0  0  0  0  0
   -2.1237    1.7813    1.1375 H   0  0  0  0  0  0  0  0  0  0  0  0
    1.1928    1.9389    0.1230 H   0  0  0  0  0  0  0  0  0  0  0  0
    3.5460    0.0891    0.9532 H   0  0  0  0  0  0  0  0  0  0  0  0
    3.7034   -0.6831   -0.6745 H   0  0  0  0  0  0  0  0  0  0  0  0
    3.4112    1.0855   -0.5502 H   0  0  0  0  0  0  0  0  0  0  0  0
    1.8709   -2.2888   -0.2566 H   0  0  0  0  0  0  0  0  0  0  0  0
   -0.5418   -2.6978   -0.2080 H   0  0  0  0  0  0  0  0  0  0  0  0
   -2.9925   -0.5452    0.9731 H   0  0  0  0  0  0  0  0  0  0  0  0
   -3.0677   -0.3641   -0.8280 H   0  0  0  0  0  0  0  0  0  0  0  0
   -2.7773   -1.9764   -0.0921 H   0  0  0  0  0  0  0  0  0  0  0  0
  1  2  1  0
  2  3  2  0
  2  8  1  0
  3  4  1  0
  4  5  1  0
  4  6  2  0
  6  7  1  0
  7  8  2  0
  8  9  1  0
  1 10  1  0
  1 11  1  0
  1 12  1  0
  3 13  1  0
  5 14  1  0
  5 15  1  0
  5 16  1  0
  6 17  1  0
  7 18  1  0
  9 19  1  0
  9 20  1  0
  9 21  1  0
M  END
$$$$
