Oc1cc(C)ccc1C
     RDKit          3D

 19 19  0  0  0  0  0  0  0  0999 V2000
    1.4193    2.1862   -0.2203 O   0  0  0  0  0  0  0  0  0  0  0  0
    0.6826    1.0026   -0.1765 C   0  0  0  0  0  0  0  0  0  0  0  0
   -0.7186    1.0456   -0.2241 C   0  0  0  0  0  0  0  0  0  0  0  0
   -1.4684   -0.1391   -0.1838 C   0  0  0  0  0  0  0  0  0  0  0  0
   -2.9675   -0.0852   -0.1944 C   0  0  0  0  0  0  0  0  0  0  0  0
   -0.8070   -1.3691   -0.0615 C   0  0  0  0  0  0  0  0  0  0  0  0
    0.5886   -1.4178   -0.0144 C   0  0  0  0  0  0  0  0  0  0  0  0
    1.3436   -0.2359   -0.0815 C   0  0  0  0  0  0  0  0  0  0  0  0
    2.8435   -0.2917   -0.0145 C   0  0  0  0  0  0  0  0  0  0  0  0
    0.9677    3.0908   -0.2877 H   0  0  0  0  0  0  0  0  0  0  0  0
   -1.2222    2.0024   -0.2913 H   0  0  0  0  0  0  0  0  0  0  0  0
   -3.3409    0.0066    0.8468 H   0  0  0  0  0  0  0  0  0  0  0  0
   -3.3239    0.7853   -0.7854 H   0  0  0  0  0  0  0  0  0  0  0  0
   -3.3898   -1.0056   -0.6512 H   0  0  0  0  0  0  0  0  0  0  0  0
   -1.3718   -2.2914   -0.0019 H   0  0  0  0  0  0  0  0  0  0  0  0
    1.0787   -2.3792    0.0776 H   0  0  0  0  0  0  0  0  0  0  0  0
    3.1890    0.1508    0.9433 H   0  0  0  0  0  0  0  0  0  0  0  0
    3.2812    0.2810   -0.8593 H   0  0  0  0  0  0  0  0  0  0  0  0
    3.2157   -1.3365   -0.0770 H   0  0  0  0  0  0  0  0  0  0  0  0
  1  2  1  0
  2  3  2  0
  2  8  1  0
  3  4  1  0
  4  5  1  0
  4  6  2  0
  6  7  1  0
  7  8  2  0
  8  9  1  0
  1 10  1  0
  3 11  1  0
  5 12  1  0
  5 13  1  0
  5 14  1  0
  6 15  1  0
  7 16  1  0
  9 17  1  0
  9 18  1  0
  9 19  1  0
M  END
$$$$
