O=C(N(C)C)C(c2ccccc2)c1ccccc1
     RDKit          3D

 35 36  0  0  0  0  0  0  0  0999 V2000
    1.3507    0.5802    1.9024 O   0  0  0  0  0  0  0  0  0  0  0  0
    1.3997   -0.0537    0.8111 C   0  0  0  0  0  0  0  0  0  0  0  0
    2.3689   -1.1170    0.6586 N   0  0  0  0  0  0  0  0  0  0  0  0
    2.5188   -1.8369   -0.6118 C   0  0  0  0  0  0  0  0  0  0  0  0
    3.2165   -1.4712    1.8022 C   0  0  0  0  0  0  0  0  0  0  0  0
    0.4083    0.2872   -0.2921 C   0  0  0  0  0  0  0  0  0  0  0  0
   -0.2146    1.6635   -0.1122 C   0  0  0  0  0  0  0  0  0  0  0  0
    0.1130    2.7067   -0.9991 C   0  0  0  0  0  0  0  0  0  0  0  0
   -0.4569    3.9741   -0.8449 C   0  0  0  0  0  0  0  0  0  0  0  0
   -1.3576    4.2163    0.1943 C   0  0  0  0  0  0  0  0  0  0  0  0
   -1.6900    3.1917    1.0829 C   0  0  0  0  0  0  0  0  0  0  0  0
   -1.1236    1.9225    0.9337 C   0  0  0  0  0  0  0  0  0  0  0  0
   -0.6724   -0.7686   -0.4536 C   0  0  0  0  0  0  0  0  0  0  0  0
   -1.2105   -1.0113   -1.7307 C   0  0  0  0  0  0  0  0  0  0  0  0
   -2.2206   -1.9614   -1.9068 C   0  0  0  0  0  0  0  0  0  0  0  0
   -2.7119   -2.6732   -0.8105 C   0  0  0  0  0  0  0  0  0  0  0  0
   -2.1971   -2.4331    0.4652 C   0  0  0  0  0  0  0  0  0  0  0  0
   -1.1869   -1.4841    0.6474 C   0  0  0  0  0  0  0  0  0  0  0  0
    1.5635   -2.3293   -0.8861 H   0  0  0  0  0  0  0  0  0  0  0  0
    2.8218   -1.1311   -1.4129 H   0  0  0  0  0  0  0  0  0  0  0  0
    3.2964   -2.6265   -0.5481 H   0  0  0  0  0  0  0  0  0  0  0  0
    3.9122   -2.3023    1.5619 H   0  0  0  0  0  0  0  0  0  0  0  0
    3.8219   -0.5913    2.1066 H   0  0  0  0  0  0  0  0  0  0  0  0
    2.5798   -1.7896    2.6547 H   0  0  0  0  0  0  0  0  0  0  0  0
    0.9975    0.3075   -1.2340 H   0  0  0  0  0  0  0  0  0  0  0  0
    0.8094    2.5418   -1.8117 H   0  0  0  0  0  0  0  0  0  0  0  0
   -0.1993    4.7695   -1.5324 H   0  0  0  0  0  0  0  0  0  0  0  0
   -1.7973    5.1983    0.3116 H   0  0  0  0  0  0  0  0  0  0  0  0
   -2.3866    3.3812    1.8893 H   0  0  0  0  0  0  0  0  0  0  0  0
   -1.3914    1.1456    1.6371 H   0  0  0  0  0  0  0  0  0  0  0  0
   -0.8473   -0.4631   -2.5913 H   0  0  0  0  0  0  0  0  0  0  0  0
   -2.6248   -2.1437   -2.8942 H   0  0  0  0  0  0  0  0  0  0  0  0
   -3.4948   -3.4076   -0.9488 H   0  0  0  0  0  0  0  0  0  0  0  0
   -2.5834   -2.9808    1.3151 H   0  0  0  0  0  0  0  0  0  0  0  0
   -0.8113   -1.3102    1.6473 H   0  0  0  0  0  0  0  0  0  0  0  0
  1  2  2  0
  2  6  1  0
  2  3  1  0
  3  4  1  0
  3  5  1  0
  6 13  1  0
  6  7  1  0
  7 12  1  0
  7  8  2  0
  8  9  1  0
  9 10  2  0
 10 11  1  0
 11 12  2  0
 13 18  1  0
 13 14  2  0
 14 15  1  0
 15 16  2  0
 16 17  1  0
 17 18  2  0
  4 19  1  0
  4 20  1  0
  4 21  1  0
  5 22  1  0
  5 23  1  0
  5 24  1  0
  6 25  1  0
  8 26  1  0
  9 27  1  0
 10 28  1  0
 11 29  1  0
 12 30  1  0
 14 31  1  0
 15 32  1  0
 16 33  1  0
 17 34  1  0
 18 35  1  0
M  END
$$$$
