BrC(CCl)CBr
     RDKit          3D

 11 10  0  0  1  0  0  0  0  0999 V2000
   -0.0330    2.3758   -0.2573 Br  0  0  0  0  0  0  0  0  0  0  0  0
    0.0729    0.4409   -0.4232 C   0  0  1  0  0  0  0  0  0  0  0  0
    1.2257   -0.0609    0.4615 C   0  0  0  0  0  0  0  0  0  0  0  0
    1.7338   -1.7165    0.0353 Cl  0  0  0  0  0  0  0  0  0  0  0  0
   -1.2882   -0.1610   -0.0360 C   0  0  0  0  0  0  0  0  0  0  0  0
   -1.5412   -1.9478   -0.7515 Br  0  0  0  0  0  0  0  0  0  0  0  0
    0.2928    0.2197   -1.4899 H   0  0  0  0  0  0  0  0  0  0  0  0
    2.1117    0.5936    0.3196 H   0  0  0  0  0  0  0  0  0  0  0  0
    0.9435   -0.0253    1.5352 H   0  0  0  0  0  0  0  0  0  0  0  0
   -1.4146   -0.1807    1.0673 H   0  0  0  0  0  0  0  0  0  0  0  0
   -2.1034    0.4622   -0.4609 H   0  0  0  0  0  0  0  0  0  0  0  0
  1  2  1  0
  2  3  1  0
  2  5  1  0
  3  4  1  0
  5  6  1  0
  2  7  1  6
  3  8  1  0
  3  9  1  0
  5 10  1  0
  5 11  1  0
M  END
$$$$
