CC(CC)CC
     RDKit          3D

 20 19  0  0  0  0  0  0  0  0999 V2000
   -0.0753    1.3988    0.9145 C   0  0  0  0  0  0  0  0  0  0  0  0
    0.0683    0.4863   -0.3156 C   0  0  0  0  0  0  0  0  0  0  0  0
   -1.3111    0.0592   -0.8729 C   0  0  0  0  0  0  0  0  0  0  0  0
   -2.1479   -0.7902    0.0883 C   0  0  0  0  0  0  0  0  0  0  0  0
    0.9736   -0.7347   -0.0273 C   0  0  0  0  0  0  0  0  0  0  0  0
    2.4441   -0.3508    0.1414 C   0  0  0  0  0  0  0  0  0  0  0  0
    0.8903    1.8970    1.1399 H   0  0  0  0  0  0  0  0  0  0  0  0
   -0.8241    2.1960    0.7199 H   0  0  0  0  0  0  0  0  0  0  0  0
   -0.3900    0.8194    1.8079 H   0  0  0  0  0  0  0  0  0  0  0  0
    0.5500    1.0894   -1.1177 H   0  0  0  0  0  0  0  0  0  0  0  0
   -1.1621   -0.5145   -1.8136 H   0  0  0  0  0  0  0  0  0  0  0  0
   -1.8936    0.9677   -1.1408 H   0  0  0  0  0  0  0  0  0  0  0  0
   -2.3686   -0.2322    1.0214 H   0  0  0  0  0  0  0  0  0  0  0  0
   -3.1141   -1.0442   -0.3962 H   0  0  0  0  0  0  0  0  0  0  0  0
   -1.6281   -1.7389    0.3342 H   0  0  0  0  0  0  0  0  0  0  0  0
    0.6342   -1.2616    0.8906 H   0  0  0  0  0  0  0  0  0  0  0  0
    0.9064   -1.4516   -0.8747 H   0  0  0  0  0  0  0  0  0  0  0  0
    2.8051    0.2084   -0.7477 H   0  0  0  0  0  0  0  0  0  0  0  0
    2.5876    0.2676    1.0514 H   0  0  0  0  0  0  0  0  0  0  0  0
    3.0554   -1.2714    0.2501 H   0  0  0  0  0  0  0  0  0  0  0  0
  1  2  1  0
  2  5  1  0
  2  3  1  0
  3  4  1  0
  5  6  1  0
  1  7  1  0
  1  8  1  0
  1  9  1  0
  2 10  1  0
  3 11  1  0
  3 12  1  0
  4 13  1  0
  4 14  1  0
  4 15  1  0
  5 16  1  0
  5 17  1  0
  6 18  1  0
  6 19  1  0
  6 20  1  0
M  END
$$$$
