NC(NC(C(N1)=O)NC1=O)=O
     RDKit          3D

 17 17  0  0  1  0  0  0  0  0999 V2000
    3.1804    0.1623    0.7486 N   0  0  0  0  0  0  0  0  0  0  0  0
    2.0381    0.3581   -0.0836 C   0  0  0  0  0  0  0  0  0  0  0  0
    0.8456   -0.4036    0.1444 N   0  0  0  0  0  0  0  0  0  0  0  0
   -0.3514   -0.2297   -0.6797 C   0  0  1  0  0  0  0  0  0  0  0  0
   -1.4164   -1.2236   -0.3114 C   0  0  0  0  0  0  0  0  0  0  0  0
   -2.5923   -0.6006    0.1835 N   0  0  0  0  0  0  0  0  0  0  0  0
   -1.3015   -2.4713   -0.4355 O   0  0  0  0  0  0  0  0  0  0  0  0
   -0.9920    1.0486   -0.3786 N   0  0  0  0  0  0  0  0  0  0  0  0
   -2.2940    0.7798    0.1223 C   0  0  0  0  0  0  0  0  0  0  0  0
   -3.1021    1.6796    0.4710 O   0  0  0  0  0  0  0  0  0  0  0  0
    2.0877    1.2012   -1.0193 O   0  0  0  0  0  0  0  0  0  0  0  0
    4.0523    0.7134    0.5862 H   0  0  0  0  0  0  0  0  0  0  0  0
    3.1572   -0.5317    1.5281 H   0  0  0  0  0  0  0  0  0  0  0  0
    0.8527   -1.1203    0.9058 H   0  0  0  0  0  0  0  0  0  0  0  0
   -0.1069   -0.3034   -1.7613 H   0  0  0  0  0  0  0  0  0  0  0  0
   -3.4781   -1.0548    0.4982 H   0  0  0  0  0  0  0  0  0  0  0  0
   -0.5795    1.9960   -0.5289 H   0  0  0  0  0  0  0  0  0  0  0  0
  1  2  1  0
  2  3  1  0
  2 11  2  0
  3  4  1  0
  4  5  1  0
  4  8  1  0
  5  6  1  0
  5  7  2  0
  6  9  1  0
  8  9  1  0
  9 10  2  0
  1 12  1  0
  1 13  1  0
  3 14  1  0
  4 15  1  6
  6 16  1  0
  8 17  1  0
M  END
$$$$
