CCC(CO)CC
     RDKit          3D

 21 20  0  0  0  0  0  0  0  0999 V2000
   -1.1930   -1.6495    0.0855 C   0  0  0  0  0  0  0  0  0  0  0  0
   -0.4267   -0.7002    1.0109 C   0  0  0  0  0  0  0  0  0  0  0  0
    0.1171    0.5817    0.3226 C   0  0  0  0  0  0  0  0  0  0  0  0
   -1.0140    1.5225   -0.1371 C   0  0  0  0  0  0  0  0  0  0  0  0
   -1.8409    1.8576    0.9437 O   0  0  0  0  0  0  0  0  0  0  0  0
    1.0784    0.2963   -0.8568 C   0  0  0  0  0  0  0  0  0  0  0  0
    2.3096   -0.5132   -0.4481 C   0  0  0  0  0  0  0  0  0  0  0  0
   -0.5338   -2.0438   -0.7145 H   0  0  0  0  0  0  0  0  0  0  0  0
   -1.5628   -2.5136    0.6767 H   0  0  0  0  0  0  0  0  0  0  0  0
   -2.0708   -1.1448   -0.3663 H   0  0  0  0  0  0  0  0  0  0  0  0
    0.4143   -1.2578    1.4745 H   0  0  0  0  0  0  0  0  0  0  0  0
   -1.0964   -0.4120    1.8496 H   0  0  0  0  0  0  0  0  0  0  0  0
    0.6980    1.1374    1.0931 H   0  0  0  0  0  0  0  0  0  0  0  0
   -0.5682    2.4550   -0.5514 H   0  0  0  0  0  0  0  0  0  0  0  0
   -1.6144    1.0452   -0.9425 H   0  0  0  0  0  0  0  0  0  0  0  0
   -2.5500    2.4468    0.5764 H   0  0  0  0  0  0  0  0  0  0  0  0
    0.5473   -0.2270   -1.6801 H   0  0  0  0  0  0  0  0  0  0  0  0
    1.4375    1.2656   -1.2674 H   0  0  0  0  0  0  0  0  0  0  0  0
    3.0289   -0.5431   -1.2935 H   0  0  0  0  0  0  0  0  0  0  0  0
    2.8108   -0.0453    0.4258 H   0  0  0  0  0  0  0  0  0  0  0  0
    2.0291   -1.5580   -0.2011 H   0  0  0  0  0  0  0  0  0  0  0  0
  1  2  1  0
  2  3  1  0
  3  6  1  0
  3  4  1  0
  4  5  1  0
  6  7  1  0
  1  8  1  0
  1  9  1  0
  1 10  1  0
  2 11  1  0
  2 12  1  0
  3 13  1  0
  4 14  1  0
  4 15  1  0
  5 16  1  0
  6 17  1  0
  6 18  1  0
  7 19  1  0
  7 20  1  0
  7 21  1  0
M  END
$$$$
