CC(C3(CCC4C2C=C(C1=CC(CCC1(C2CCC34C)C)=O)C)C)=O
     RDKit          3D

 57 60  0  0  1  0  0  0  0  0999 V2000
    4.1767    2.1629   -1.1416 C   0  0  0  0  0  0  0  0  0  0  0  0
    3.9277    1.3342    0.0953 C   0  0  0  0  0  0  0  0  0  0  0  0
    3.4534   -0.1416    0.0709 C   0  0  2  0  0  0  0  0  0  0  0  0
    3.5287   -0.7378   -1.3739 C   0  0  0  0  0  0  0  0  0  0  0  0
    2.1227   -0.6277   -1.9935 C   0  0  0  0  0  0  0  0  0  0  0  0
    1.2683    0.0409   -0.9155 C   0  0  1  0  0  0  0  0  0  0  0  0
   -0.2906   -0.0219   -0.9682 C   0  0  1  0  0  0  0  0  0  0  0  0
   -0.9443   -1.2553   -1.5186 C   0  0  0  0  0  0  0  0  0  0  0  0
   -2.2815   -1.4108   -1.4285 C   0  0  0  0  0  0  0  0  0  0  0  0
   -3.1176   -0.4627   -0.5919 C   0  0  0  0  0  0  0  0  0  0  0  0
   -4.4540   -0.6340   -0.5140 C   0  0  0  0  0  0  0  0  0  0  0  0
   -5.2819    0.0896    0.4648 C   0  0  0  0  0  0  0  0  0  0  0  0
   -4.6657    0.9329    1.5408 C   0  0  0  0  0  0  0  0  0  0  0  0
   -3.1437    0.7365    1.6287 C   0  0  0  0  0  0  0  0  0  0  0  0
   -2.4515    0.6633    0.2319 C   0  0  1  0  0  0  0  0  0  0  0  0
   -0.9363    0.2971    0.4111 C   0  0  2  0  0  0  0  0  0  0  0  0
   -0.0463    1.2713    1.2161 C   0  0  0  0  0  0  0  0  0  0  0  0
    1.3265    0.6211    1.5604 C   0  0  0  0  0  0  0  0  0  0  0  0
    1.9159   -0.3140    0.4307 C   0  0  2  0  0  0  0  0  0  0  0  0
    1.6187   -1.8102    0.7966 C   0  0  0  0  0  0  0  0  0  0  0  0
   -2.6345    2.0226   -0.4989 C   0  0  0  0  0  0  0  0  0  0  0  0
   -6.5360   -0.0094    0.4038 O   0  0  0  0  0  0  0  0  0  0  0  0
   -2.9078   -2.6171   -2.0881 C   0  0  0  0  0  0  0  0  0  0  0  0
    4.3984   -0.9332    1.0134 C   0  0  0  0  0  0  0  0  0  0  0  0
    4.1977    1.8537    1.1695 O   0  0  0  0  0  0  0  0  0  0  0  0
    4.3294    3.2286   -0.8668 H   0  0  0  0  0  0  0  0  0  0  0  0
    5.0984    1.8148   -1.6514 H   0  0  0  0  0  0  0  0  0  0  0  0
    3.3222    2.1146   -1.8437 H   0  0  0  0  0  0  0  0  0  0  0  0
    3.8108   -1.8135   -1.3444 H   0  0  0  0  0  0  0  0  0  0  0  0
    4.2920   -0.2624   -2.0204 H   0  0  0  0  0  0  0  0  0  0  0  0
    2.1403   -0.0139   -2.9205 H   0  0  0  0  0  0  0  0  0  0  0  0
    1.7628   -1.6441   -2.2452 H   0  0  0  0  0  0  0  0  0  0  0  0
    1.4701    1.1282   -1.0534 H   0  0  0  0  0  0  0  0  0  0  0  0
   -0.5587    0.7701   -1.6933 H   0  0  0  0  0  0  0  0  0  0  0  0
   -0.3558   -1.9941   -2.0400 H   0  0  0  0  0  0  0  0  0  0  0  0
   -4.9607   -1.3678   -1.1252 H   0  0  0  0  0  0  0  0  0  0  0  0
   -4.9040    2.0003    1.3481 H   0  0  0  0  0  0  0  0  0  0  0  0
   -5.1203    0.6657    2.5192 H   0  0  0  0  0  0  0  0  0  0  0  0
   -2.7355    1.5746    2.2305 H   0  0  0  0  0  0  0  0  0  0  0  0
   -2.9480   -0.2045    2.1898 H   0  0  0  0  0  0  0  0  0  0  0  0
   -0.9582   -0.6291    1.0196 H   0  0  0  0  0  0  0  0  0  0  0  0
   -0.5301    1.5652    2.1683 H   0  0  0  0  0  0  0  0  0  0  0  0
    0.1203    2.1998    0.6280 H   0  0  0  0  0  0  0  0  0  0  0  0
    1.2072    0.0430    2.5029 H   0  0  0  0  0  0  0  0  0  0  0  0
    2.0016    1.4465    1.8314 H   0  0  0  0  0  0  0  0  0  0  0  0
    0.5476   -2.0639    0.8068 H   0  0  0  0  0  0  0  0  0  0  0  0
    2.0785   -2.5166    0.0766 H   0  0  0  0  0  0  0  0  0  0  0  0
    2.0161   -2.0514    1.8051 H   0  0  0  0  0  0  0  0  0  0  0  0
   -2.2669    2.0024   -1.5417 H   0  0  0  0  0  0  0  0  0  0  0  0
   -3.7054    2.2955   -0.5823 H   0  0  0  0  0  0  0  0  0  0  0  0
   -2.1198    2.8385    0.0498 H   0  0  0  0  0  0  0  0  0  0  0  0
   -2.1596   -3.2571   -2.6034 H   0  0  0  0  0  0  0  0  0  0  0  0
   -3.4161   -3.2408   -1.3230 H   0  0  0  0  0  0  0  0  0  0  0  0
   -3.6451   -2.2859   -2.8488 H   0  0  0  0  0  0  0  0  0  0  0  0
    5.4600   -0.7156    0.7652 H   0  0  0  0  0  0  0  0  0  0  0  0
    4.2167   -0.6464    2.0714 H   0  0  0  0  0  0  0  0  0  0  0  0
    4.2671   -2.0315    0.9248 H   0  0  0  0  0  0  0  0  0  0  0  0
  1  2  1  0
  2 25  2  0
  3  2  1  6
  3 24  1  0
  3  4  1  0
  3 19  1  0
  4  5  1  0
  5  6  1  0
  6  7  1  0
  6 19  1  0
  7  8  1  0
  7 16  1  0
  8  9  2  0
  9 23  1  0
  9 10  1  0
 10 11  2  0
 10 15  1  0
 11 12  1  0
 12 13  1  0
 12 22  2  0
 13 14  1  0
 14 15  1  0
 15 21  1  6
 15 16  1  0
 16 17  1  0
 17 18  1  0
 18 19  1  0
 19 20  1  1
  1 26  1  0
  1 27  1  0
  1 28  1  0
  4 29  1  0
  4 30  1  0
  5 31  1  0
  5 32  1  0
  6 33  1  6
  7 34  1  6
  8 35  1  0
 11 36  1  0
 13 37  1  0
 13 38  1  0
 14 39  1  0
 14 40  1  0
 16 41  1  1
 17 42  1  0
 17 43  1  0
 18 44  1  0
 18 45  1  0
 20 46  1  0
 20 47  1  0
 20 48  1  0
 21 49  1  0
 21 50  1  0
 21 51  1  0
 23 52  1  0
 23 53  1  0
 23 54  1  0
 24 55  1  0
 24 56  1  0
 24 57  1  0
M  END
$$$$
