CC(C)(c1ccc(O)cc1)C
     RDKit          3D

 25 25  0  0  0  0  0  0  0  0999 V2000
   -1.7592   -1.1818    1.0836 C   0  0  0  0  0  0  0  0  0  0  0  0
   -1.3577   -0.0954    0.0623 C   0  0  0  0  0  0  0  0  0  0  0  0
   -1.8109   -0.5265   -1.3496 C   0  0  0  0  0  0  0  0  0  0  0  0
    0.1745    0.0845    0.0782 C   0  0  0  0  0  0  0  0  0  0  0  0
    1.0095   -1.0127   -0.2350 C   0  0  0  0  0  0  0  0  0  0  0  0
    2.4009   -0.8859   -0.2304 C   0  0  0  0  0  0  0  0  0  0  0  0
    2.9951    0.3385    0.0867 C   0  0  0  0  0  0  0  0  0  0  0  0
    4.3814    0.4759    0.0943 O   0  0  0  0  0  0  0  0  0  0  0  0
    2.1913    1.4348    0.3990 C   0  0  0  0  0  0  0  0  0  0  0  0
    0.7983    1.3153    0.3964 C   0  0  0  0  0  0  0  0  0  0  0  0
   -2.1245    1.1986    0.4271 C   0  0  0  0  0  0  0  0  0  0  0  0
   -1.3294   -2.1704    0.8189 H   0  0  0  0  0  0  0  0  0  0  0  0
   -2.8641   -1.2992    1.1208 H   0  0  0  0  0  0  0  0  0  0  0  0
   -1.4027   -0.9071    2.1000 H   0  0  0  0  0  0  0  0  0  0  0  0
   -1.3815   -1.5097   -1.6342 H   0  0  0  0  0  0  0  0  0  0  0  0
   -2.9176   -0.6211   -1.3969 H   0  0  0  0  0  0  0  0  0  0  0  0
   -1.4920    0.2251   -2.1039 H   0  0  0  0  0  0  0  0  0  0  0  0
    0.5889   -1.9769   -0.4858 H   0  0  0  0  0  0  0  0  0  0  0  0
    3.0163   -1.7426   -0.4742 H   0  0  0  0  0  0  0  0  0  0  0  0
    4.9919   -0.3017   -0.1281 H   0  0  0  0  0  0  0  0  0  0  0  0
    2.6474    2.3854    0.6454 H   0  0  0  0  0  0  0  0  0  0  0  0
    0.2291    2.1979    0.6462 H   0  0  0  0  0  0  0  0  0  0  0  0
   -1.8626    1.5387    1.4524 H   0  0  0  0  0  0  0  0  0  0  0  0
   -3.2226    1.0260    0.4039 H   0  0  0  0  0  0  0  0  0  0  0  0
   -1.8998    2.0102   -0.2985 H   0  0  0  0  0  0  0  0  0  0  0  0
  1  2  1  0
  2 11  1  0
  2  3  1  0
  2  4  1  0
  4 10  2  0
  4  5  1  0
  5  6  2  0
  6  7  1  0
  7  9  2  0
  7  8  1  0
  9 10  1  0
  1 12  1  0
  1 13  1  0
  1 14  1  0
  3 15  1  0
  3 16  1  0
  3 17  1  0
  5 18  1  0
  6 19  1  0
  8 20  1  0
  9 21  1  0
 10 22  1  0
 11 23  1  0
 11 24  1  0
 11 25  1  0
M  END
$$$$
