CC(c1ccccc1)=O
     RDKit          3D

 17 17  0  0  0  0  0  0  0  0999 V2000
   -2.7125    0.4381    0.0737 C   0  0  0  0  0  0  0  0  0  0  0  0
   -1.6722   -0.6249   -0.1167 C   0  0  0  0  0  0  0  0  0  0  0  0
   -0.2172   -0.3253   -0.0335 C   0  0  0  0  0  0  0  0  0  0  0  0
    0.7266   -1.3551   -0.2191 C   0  0  0  0  0  0  0  0  0  0  0  0
    2.0967   -1.0866   -0.1434 C   0  0  0  0  0  0  0  0  0  0  0  0
    2.5436    0.2097    0.1178 C   0  0  0  0  0  0  0  0  0  0  0  0
    1.6213    1.2407    0.3040 C   0  0  0  0  0  0  0  0  0  0  0  0
    0.2496    0.9791    0.2296 C   0  0  0  0  0  0  0  0  0  0  0  0
   -2.0560   -1.8027   -0.3537 O   0  0  0  0  0  0  0  0  0  0  0  0
   -3.7320    0.0087   -0.0275 H   0  0  0  0  0  0  0  0  0  0  0  0
   -2.6175    0.8813    1.0871 H   0  0  0  0  0  0  0  0  0  0  0  0
   -2.5874    1.2299   -0.6943 H   0  0  0  0  0  0  0  0  0  0  0  0
    0.4076   -2.3695   -0.4230 H   0  0  0  0  0  0  0  0  0  0  0  0
    2.8128   -1.8854   -0.2876 H   0  0  0  0  0  0  0  0  0  0  0  0
    3.6047    0.4153    0.1760 H   0  0  0  0  0  0  0  0  0  0  0  0
    1.9693    2.2455    0.5065 H   0  0  0  0  0  0  0  0  0  0  0  0
   -0.4374    1.8011    0.3789 H   0  0  0  0  0  0  0  0  0  0  0  0
  1  2  1  0
  2  3  1  0
  2  9  2  0
  3  8  2  0
  3  4  1  0
  4  5  2  0
  5  6  1  0
  6  7  2  0
  7  8  1  0
  1 10  1  0
  1 11  1  0
  1 12  1  0
  4 13  1  0
  5 14  1  0
  6 15  1  0
  7 16  1  0
  8 17  1  0
M  END
$$$$
