CC(c1ccccc1)O
     RDKit          3D

 19 19  0  0  1  0  0  0  0  0999 V2000
   -2.3355    0.3331   -0.8013 C   0  0  0  0  0  0  0  0  0  0  0  0
   -1.5732   -0.0796    0.4576 C   0  0  1  0  0  0  0  0  0  0  0  0
   -0.0827   -0.1131    0.1954 C   0  0  0  0  0  0  0  0  0  0  0  0
    0.6249    1.0737   -0.0716 C   0  0  0  0  0  0  0  0  0  0  0  0
    2.0023    1.0366   -0.3094 C   0  0  0  0  0  0  0  0  0  0  0  0
    2.6856   -0.1816   -0.2807 C   0  0  0  0  0  0  0  0  0  0  0  0
    1.9930   -1.3650   -0.0127 C   0  0  0  0  0  0  0  0  0  0  0  0
    0.6154   -1.3333    0.2260 C   0  0  0  0  0  0  0  0  0  0  0  0
   -1.8624    0.8225    1.4931 O   0  0  0  0  0  0  0  0  0  0  0  0
   -2.0645    1.3656   -1.1082 H   0  0  0  0  0  0  0  0  0  0  0  0
   -3.4283    0.2999   -0.6050 H   0  0  0  0  0  0  0  0  0  0  0  0
   -2.1064   -0.3657   -1.6343 H   0  0  0  0  0  0  0  0  0  0  0  0
   -1.9380   -1.0939    0.7440 H   0  0  0  0  0  0  0  0  0  0  0  0
    0.1112    2.0267   -0.0913 H   0  0  0  0  0  0  0  0  0  0  0  0
    2.5403    1.9531   -0.5144 H   0  0  0  0  0  0  0  0  0  0  0  0
    3.7518   -0.2085   -0.4648 H   0  0  0  0  0  0  0  0  0  0  0  0
    2.5238   -2.3080    0.0104 H   0  0  0  0  0  0  0  0  0  0  0  0
    0.0951   -2.2605    0.4314 H   0  0  0  0  0  0  0  0  0  0  0  0
   -1.5523    0.3980    2.3357 H   0  0  0  0  0  0  0  0  0  0  0  0
  1  2  1  0
  2  3  1  0
  2  9  1  0
  3  8  2  0
  3  4  1  0
  4  5  2  0
  5  6  1  0
  6  7  2  0
  7  8  1  0
  1 10  1  0
  1 11  1  0
  1 12  1  0
  2 13  1  1
  4 14  1  0
  5 15  1  0
  6 16  1  0
  7 17  1  0
  8 18  1  0
  9 19  1  0
M  END
$$$$
