Oc1ccc(C(OC)=O)cc1
     RDKit          3D

 19 19  0  0  0  0  0  0  0  0999 V2000
   -4.0947   -0.2515   -0.5216 O   0  0  0  0  0  0  0  0  0  0  0  0
   -2.7122   -0.2662   -0.3510 C   0  0  0  0  0  0  0  0  0  0  0  0
   -2.0736   -1.4554    0.0116 C   0  0  0  0  0  0  0  0  0  0  0  0
   -0.6866   -1.4855    0.1864 C   0  0  0  0  0  0  0  0  0  0  0  0
    0.0807   -0.3206   -0.0004 C   0  0  0  0  0  0  0  0  0  0  0  0
    1.5488   -0.3453    0.1830 C   0  0  0  0  0  0  0  0  0  0  0  0
    2.2948    0.8232   -0.0072 O   0  0  0  0  0  0  0  0  0  0  0  0
    3.7076    0.8670    0.1530 C   0  0  0  0  0  0  0  0  0  0  0  0
    2.1285   -1.4177    0.5104 O   0  0  0  0  0  0  0  0  0  0  0  0
   -0.5694    0.8721   -0.3651 C   0  0  0  0  0  0  0  0  0  0  0  0
   -1.9566    0.8981   -0.5390 C   0  0  0  0  0  0  0  0  0  0  0  0
   -4.5868    0.5945   -0.7841 H   0  0  0  0  0  0  0  0  0  0  0  0
   -2.6530   -2.3582    0.1582 H   0  0  0  0  0  0  0  0  0  0  0  0
   -0.2164   -2.4196    0.4674 H   0  0  0  0  0  0  0  0  0  0  0  0
    4.0657    1.8969   -0.0508 H   0  0  0  0  0  0  0  0  0  0  0  0
    4.1931    0.1691   -0.5615 H   0  0  0  0  0  0  0  0  0  0  0  0
    3.9810    0.5901    1.1933 H   0  0  0  0  0  0  0  0  0  0  0  0
   -0.0079    1.7854   -0.5164 H   0  0  0  0  0  0  0  0  0  0  0  0
   -2.4429    1.8236   -0.8199 H   0  0  0  0  0  0  0  0  0  0  0  0
  1  2  1  0
  2 11  2  0
  2  3  1  0
  3  4  2  0
  4  5  1  0
  5 10  2  0
  5  6  1  0
  6  9  2  0
  6  7  1  0
  7  8  1  0
 10 11  1  0
  1 12  1  0
  3 13  1  0
  4 14  1  0
  8 15  1  0
  8 16  1  0
  8 17  1  0
 10 18  1  0
 11 19  1  0
M  END
$$$$
