Cc1ccc(C(O)=O)cc1
     RDKit          3D

 18 18  0  0  0  0  0  0  0  0999 V2000
   -2.8914   -0.0392   -0.5041 C   0  0  0  0  0  0  0  0  0  0  0  0
   -1.4126    0.0460   -0.2669 C   0  0  0  0  0  0  0  0  0  0  0  0
   -0.6456   -1.1260   -0.2286 C   0  0  0  0  0  0  0  0  0  0  0  0
    0.7337   -1.0625   -0.0083 C   0  0  0  0  0  0  0  0  0  0  0  0
    1.3695    0.1778    0.1832 C   0  0  0  0  0  0  0  0  0  0  0  0
    2.8324    0.2640    0.4132 C   0  0  0  0  0  0  0  0  0  0  0  0
    3.5637   -0.8155    0.9078 O   0  0  0  0  0  0  0  0  0  0  0  0
    3.4404    1.3408    0.1721 O   0  0  0  0  0  0  0  0  0  0  0  0
    0.5961    1.3517    0.1315 C   0  0  0  0  0  0  0  0  0  0  0  0
   -0.7830    1.2862   -0.0877 C   0  0  0  0  0  0  0  0  0  0  0  0
   -3.3625    0.9669   -0.5091 H   0  0  0  0  0  0  0  0  0  0  0  0
   -3.0847   -0.5229   -1.4847 H   0  0  0  0  0  0  0  0  0  0  0  0
   -3.3635   -0.6444    0.2983 H   0  0  0  0  0  0  0  0  0  0  0  0
   -1.1161   -2.0905   -0.3760 H   0  0  0  0  0  0  0  0  0  0  0  0
    1.2969   -1.9854   -0.0147 H   0  0  0  0  0  0  0  0  0  0  0  0
    3.1275   -1.6732    1.2196 H   0  0  0  0  0  0  0  0  0  0  0  0
    1.0564    2.3221    0.2713 H   0  0  0  0  0  0  0  0  0  0  0  0
   -1.3572    2.2040   -0.1169 H   0  0  0  0  0  0  0  0  0  0  0  0
  1  2  1  0
  2 10  2  0
  2  3  1  0
  3  4  2  0
  4  5  1  0
  5  9  2  0
  5  6  1  0
  6  7  1  0
  6  8  2  0
  9 10  1  0
  1 11  1  0
  1 12  1  0
  1 13  1  0
  3 14  1  0
  4 15  1  0
  7 16  1  0
  9 17  1  0
 10 18  1  0
M  END
$$$$
