Oc1ccc(C(O)=O)cc1
     RDKit          3D

 16 16  0  0  0  0  0  0  0  0999 V2000
    3.3032   -0.1792    0.3291 O   0  0  0  0  0  0  0  0  0  0  0  0
    1.9197   -0.1201    0.1771 C   0  0  0  0  0  0  0  0  0  0  0  0
    1.1848    0.8219    0.9025 C   0  0  0  0  0  0  0  0  0  0  0  0
   -0.2045    0.8932    0.7606 C   0  0  0  0  0  0  0  0  0  0  0  0
   -0.8770    0.0194   -0.1123 C   0  0  0  0  0  0  0  0  0  0  0  0
   -2.3470    0.0968   -0.2608 C   0  0  0  0  0  0  0  0  0  0  0  0
   -3.0772    1.0361    0.4629 O   0  0  0  0  0  0  0  0  0  0  0  0
   -2.9521   -0.6857   -1.0429 O   0  0  0  0  0  0  0  0  0  0  0  0
   -0.1305   -0.9264   -0.8394 C   0  0  0  0  0  0  0  0  0  0  0  0
    1.2586   -0.9946   -0.6947 C   0  0  0  0  0  0  0  0  0  0  0  0
    3.8638   -0.8506   -0.1825 H   0  0  0  0  0  0  0  0  0  0  0  0
    1.6911    1.5002    1.5777 H   0  0  0  0  0  0  0  0  0  0  0  0
   -0.7501    1.6320    1.3340 H   0  0  0  0  0  0  0  0  0  0  0  0
   -4.0839    1.0975    0.3687 H   0  0  0  0  0  0  0  0  0  0  0  0
   -0.6188   -1.6131   -1.5195 H   0  0  0  0  0  0  0  0  0  0  0  0
    1.8198   -1.7274   -1.2605 H   0  0  0  0  0  0  0  0  0  0  0  0
  1  2  1  0
  2 10  2  0
  2  3  1  0
  3  4  2  0
  4  5  1  0
  5  9  2  0
  5  6  1  0
  6  7  1  0
  6  8  2  0
  9 10  1  0
  1 11  1  0
  3 12  1  0
  4 13  1  0
  7 14  1  0
  9 15  1  0
 10 16  1  0
M  END
$$$$
