CC(c1ccc(N)cc1)=O
     RDKit          3D

 19 19  0  0  0  0  0  0  0  0999 V2000
   -3.1973    0.2348    0.3585 C   0  0  0  0  0  0  0  0  0  0  0  0
   -2.1381    0.2446   -0.7036 C   0  0  0  0  0  0  0  0  0  0  0  0
   -0.6959    0.0911   -0.3900 C   0  0  0  0  0  0  0  0  0  0  0  0
   -0.1690    0.4997    0.8498 C   0  0  0  0  0  0  0  0  0  0  0  0
    1.1947    0.3555    1.1229 C   0  0  0  0  0  0  0  0  0  0  0  0
    2.0545   -0.1914    0.1619 C   0  0  0  0  0  0  0  0  0  0  0  0
    3.4489   -0.3381    0.4431 N   0  0  0  0  0  0  0  0  0  0  0  0
    1.5395   -0.5878   -1.0788 C   0  0  0  0  0  0  0  0  0  0  0  0
    0.1767   -0.4437   -1.3549 C   0  0  0  0  0  0  0  0  0  0  0  0
   -2.5000    0.3774   -1.9040 O   0  0  0  0  0  0  0  0  0  0  0  0
   -2.8024   -0.1086    1.3361 H   0  0  0  0  0  0  0  0  0  0  0  0
   -4.0088   -0.4628    0.0625 H   0  0  0  0  0  0  0  0  0  0  0  0
   -3.6215    1.2545    0.4689 H   0  0  0  0  0  0  0  0  0  0  0  0
   -0.8003    0.9541    1.6018 H   0  0  0  0  0  0  0  0  0  0  0  0
    1.5823    0.6767    2.0816 H   0  0  0  0  0  0  0  0  0  0  0  0
    4.0981   -0.7428   -0.2681 H   0  0  0  0  0  0  0  0  0  0  0  0
    3.8424   -0.0436    1.3647 H   0  0  0  0  0  0  0  0  0  0  0  0
    2.1938   -1.0083   -1.8321 H   0  0  0  0  0  0  0  0  0  0  0  0
   -0.1976   -0.7615   -2.3203 H   0  0  0  0  0  0  0  0  0  0  0  0
  1  2  1  0
  2  3  1  0
  2 10  2  0
  3  9  2  0
  3  4  1  0
  4  5  2  0
  5  6  1  0
  6  8  2  0
  6  7  1  0
  8  9  1  0
  1 11  1  0
  1 12  1  0
  1 13  1  0
  4 14  1  0
  5 15  1  0
  7 16  1  0
  7 17  1  0
  8 18  1  0
  9 19  1  0
M  END
$$$$
