c1cc(OCCCC)ccc1C(=O)OCCN(CC)CC
     RDKit          3D

 21 21  0  0  0  0  0  0  0  0999 V2000
    0.9009   -1.3335    1.0860 C   0  0  0  0  0  0  0  0  0  0  0  0
    2.2901   -1.4392    1.1857 C   0  0  0  0  0  0  0  0  0  0  0  0
    3.1229   -0.8601    0.2201 C   0  0  0  0  0  0  0  0  0  0  0  0
    4.5093   -1.0297    0.3500 O   0  0  0  0  0  0  0  0  0  0  0  0
    5.4760   -0.4726   -0.5333 C   0  0  0  0  0  0  0  0  0  0  0  0
    6.8703   -0.9699   -0.1291 C   0  0  0  0  0  0  0  0  0  0  0  0
    8.0030   -0.2063   -0.8244 C   0  0  0  0  0  0  0  0  0  0  0  0
    7.9955   -0.3798   -2.3390 C   0  0  0  0  0  0  0  0  0  0  0  0
    2.5447   -0.1424   -0.8432 C   0  0  0  0  0  0  0  0  0  0  0  0
    1.1543   -0.0518   -0.9530 C   0  0  0  0  0  0  0  0  0  0  0  0
    0.3184   -0.6550    0.0057 C   0  0  0  0  0  0  0  0  0  0  0  0
   -1.1526   -0.5810   -0.1244 C   0  0  0  0  0  0  0  0  0  0  0  0
   -1.6725   -0.1533   -1.1893 O   0  0  0  0  0  0  0  0  0  0  0  0
   -1.9666   -0.9997    0.9321 O   0  0  0  0  0  0  0  0  0  0  0  0
   -3.3925   -0.9735    0.8895 C   0  0  0  0  0  0  0  0  0  0  0  0
   -3.9178    0.4601    0.9914 C   0  0  0  0  0  0  0  0  0  0  0  0
   -5.4008    0.4470    1.0138 N   0  0  0  0  0  0  0  0  0  0  0  0
   -6.0164    0.9766   -0.2226 C   0  0  0  0  0  0  0  0  0  0  0  0
   -5.8538   -0.0062   -1.3801 C   0  0  0  0  0  0  0  0  0  0  0  0
   -5.9633    1.0668    2.2356 C   0  0  0  0  0  0  0  0  0  0  0  0
   -5.7994    2.5939    2.2871 C   0  0  0  0  0  0  0  0  0  0  0  0
  1  2  2  0
  1 11  1  0
  2  3  1  0
  3  9  2  0
  3  4  1  0
  4  5  1  0
  5  6  1  0
  6  7  1  0
  7  8  1  0
  9 10  1  0
 10 11  2  0
 11 12  1  0
 12 13  2  0
 12 14  1  0
 14 15  1  0
 15 16  1  0
 16 17  1  0
 17 18  1  0
 17 20  1  0
 18 19  1  0
 20 21  1  0
M  END
$$$$
