NNc1ccccc1
     RDKit          3D

  8  8  0  0  0  0  0  0  0  0999 V2000
    2.7248    0.6337   -0.1250 N   0  0  0  0  0  0  0  0  0  0  0  0
    1.8200   -0.4361   -0.0535 N   0  0  0  0  0  0  0  0  0  0  0  0
    0.4024   -0.2153   -0.0077 C   0  0  0  0  0  0  0  0  0  0  0  0
   -0.4699   -1.3136    0.0636 C   0  0  0  0  0  0  0  0  0  0  0  0
   -1.8535   -1.1158    0.1089 C   0  0  0  0  0  0  0  0  0  0  0  0
   -2.3771    0.1793    0.0835 C   0  0  0  0  0  0  0  0  0  0  0  0
   -1.5177    1.2788    0.0127 C   0  0  0  0  0  0  0  0  0  0  0  0
   -0.1332    1.0857   -0.0329 C   0  0  0  0  0  0  0  0  0  0  0  0
  1  2  1  0
  2  3  1  0
  3  8  2  0
  3  4  1  0
  4  5  2  0
  5  6  1  0
  6  7  2  0
  7  8  1  0
M  END
$$$$
