O=C(c1ccccc1)
     RDKit          3D

  8  8  0  0  0  0  0  0  0  0999 V2000
    2.9172   -1.2788   -0.3095 O   0  0  0  0  0  0  0  0  0  0  0  0
    2.3342   -0.1620   -0.3067 C   0  0  0  0  0  0  0  0  0  0  0  0
    0.8757   -0.0649   -0.1148 C   0  0  0  0  0  0  0  0  0  0  0  0
    0.2577    1.1963   -0.1172 C   0  0  0  0  0  0  0  0  0  0  0  0
   -1.1248    1.3052    0.0636 C   0  0  0  0  0  0  0  0  0  0  0  0
   -1.9000    0.1573    0.2479 C   0  0  0  0  0  0  0  0  0  0  0  0
   -1.2939   -1.1018    0.2518 C   0  0  0  0  0  0  0  0  0  0  0  0
    0.0883   -1.2158    0.0714 C   0  0  0  0  0  0  0  0  0  0  0  0
  1  2  2  0
  2  3  1  0
  3  8  2  0
  3  4  1  0
  4  5  2  0
  5  6  1  0
  6  7  2  0
  7  8  1  0
M  END
$$$$
