COc1ccccc1
     RDKit          3D

  8  8  0  0  0  0  0  0  0  0999 V2000
   -2.7702    0.2712   -0.1635 C   0  0  0  0  0  0  0  0  0  0  0  0
   -1.7134   -0.6591   -0.3758 O   0  0  0  0  0  0  0  0  0  0  0  0
   -0.3563   -0.3786   -0.1584 C   0  0  0  0  0  0  0  0  0  0  0  0
    0.0925    0.8766    0.2997 C   0  0  0  0  0  0  0  0  0  0  0  0
    1.4578    1.1048    0.5005 C   0  0  0  0  0  0  0  0  0  0  0  0
    2.3833    0.0891    0.2478 C   0  0  0  0  0  0  0  0  0  0  0  0
    1.9453   -1.1574   -0.2064 C   0  0  0  0  0  0  0  0  0  0  0  0
    0.5812   -1.3894   -0.4084 C   0  0  0  0  0  0  0  0  0  0  0  0
  1  2  1  0
  2  3  1  0
  3  8  2  0
  3  4  1  0
  4  5  2  0
  5  6  1  0
  6  7  2  0
  7  8  1  0
M  END
$$$$
