CNc1ccccc1
     RDKit          3D

  8  8  0  0  0  0  0  0  0  0999 V2000
   -2.6562    0.4874    0.2785 C   0  0  0  0  0  0  0  0  0  0  0  0
   -1.6771   -0.4807   -0.2046 N   0  0  0  0  0  0  0  0  0  0  0  0
   -0.2539   -0.2776   -0.1298 C   0  0  0  0  0  0  0  0  0  0  0  0
    0.3000    0.8932    0.4261 C   0  0  0  0  0  0  0  0  0  0  0  0
    1.6876    1.0592    0.4836 C   0  0  0  0  0  0  0  0  0  0  0  0
    2.5344    0.0643   -0.0103 C   0  0  0  0  0  0  0  0  0  0  0  0
    1.9957   -1.0995   -0.5632 C   0  0  0  0  0  0  0  0  0  0  0  0
    0.6092   -1.2705   -0.6231 C   0  0  0  0  0  0  0  0  0  0  0  0
  1  2  1  0
  2  3  1  0
  3  8  2  0
  3  4  1  0
  4  5  2  0
  5  6  1  0
  6  7  2  0
  7  8  1  0
M  END
$$$$
