O[NH]c1ccccc1
     RDKit          3D

  8  8  0  0  0  0  0  0  0  0999 V2000
    2.9442   -0.4400    0.4574 O   0  0  0  0  0  0  0  0  0  0  0  0
    2.0017    0.5333    0.4315 N   0  0  0  0  0  0  0  0  0  0  0  0
    0.6214    0.2295    0.1857 C   0  0  0  0  0  0  0  0  0  0  0  0
    0.2030   -1.0928   -0.0460 C   0  0  0  0  0  0  0  0  0  0  0  0
   -1.1465   -1.3726   -0.2846 C   0  0  0  0  0  0  0  0  0  0  0  0
   -2.0860   -0.3381   -0.2938 C   0  0  0  0  0  0  0  0  0  0  0  0
   -1.6777    0.9784   -0.0643 C   0  0  0  0  0  0  0  0  0  0  0  0
   -0.3293    1.2625    0.1746 C   0  0  0  0  0  0  0  0  0  0  0  0
  1  2  1  0
  2  3  1  0
  3  8  2  0
  3  4  1  0
  4  5  2  0
  5  6  1  0
  6  7  2  0
  7  8  1  0
M  END
$$$$
