Cc1cc(O)no1
     RDKit          3D

  7  7  0  0  0  0  0  0  0  0999 V2000
   -2.0149    0.0628    0.0126 C   0  0  0  0  0  0  0  0  0  0  0  0
   -0.5732   -0.3082   -0.0833 C   0  0  0  0  0  0  0  0  0  0  0  0
    0.5046    0.5228    0.1403 C   0  0  0  0  0  0  0  0  0  0  0  0
    1.5815   -0.3077   -0.0787 C   0  0  0  0  0  0  0  0  0  0  0  0
    2.9203    0.0545    0.0205 O   0  0  0  0  0  0  0  0  0  0  0  0
    1.1656   -1.5438   -0.4088 N   0  0  0  0  0  0  0  0  0  0  0  0
   -0.1358   -1.5059   -0.4014 O   0  0  0  0  0  0  0  0  0  0  0  0
  1  2  1  0
  2  3  2  0
  2  7  1  0
  3  4  1  0
  4  6  2  0
  4  5  1  0
  6  7  1  0
M  END
$$$$
