c1(Cc2ccccc2)ccccc1
     RDKit          3D

 13 14  0  0  0  0  0  0  0  0999 V2000
    1.2358   -0.7007    0.0013 C   0  0  0  0  0  0  0  0  0  0  0  0
   -0.0008   -1.5392    0.1834 C   0  0  0  0  0  0  0  0  0  0  0  0
   -1.2270   -0.6664    0.2258 C   0  0  0  0  0  0  0  0  0  0  0  0
   -1.4896    0.1289    1.3545 C   0  0  0  0  0  0  0  0  0  0  0  0
   -2.6231    0.9468    1.3921 C   0  0  0  0  0  0  0  0  0  0  0  0
   -3.5012    0.9772    0.3054 C   0  0  0  0  0  0  0  0  0  0  0  0
   -3.2473    0.1898   -0.8209 C   0  0  0  0  0  0  0  0  0  0  0  0
   -2.1150   -0.6298   -0.8629 C   0  0  0  0  0  0  0  0  0  0  0  0
    1.5843   -0.2261   -1.2745 C   0  0  0  0  0  0  0  0  0  0  0  0
    2.7158    0.5782   -1.4420 C   0  0  0  0  0  0  0  0  0  0  0  0
    3.5020    0.9198   -0.3381 C   0  0  0  0  0  0  0  0  0  0  0  0
    3.1563    0.4600    0.9356 C   0  0  0  0  0  0  0  0  0  0  0  0
    2.0256   -0.3447    1.1077 C   0  0  0  0  0  0  0  0  0  0  0  0
  1  2  1  0
  1 13  1  0
  1  9  2  0
  2  3  1  0
  3  8  1  0
  3  4  2  0
  4  5  1  0
  5  6  2  0
  6  7  1  0
  7  8  2  0
  9 10  1  0
 10 11  2  0
 11 12  1  0
 12 13  2  0
M  END
$$$$
