Nc2ccc(cc2)Cc1ccc(N)cc1
     RDKit          3D

 15 16  0  0  0  0  0  0  0  0999 V2000
   -4.5127   -1.7395    0.9599 N   0  0  0  0  0  0  0  0  0  0  0  0
   -3.4389   -0.8711    0.5890 C   0  0  0  0  0  0  0  0  0  0  0  0
   -3.0868   -0.7205   -0.7596 C   0  0  0  0  0  0  0  0  0  0  0  0
   -2.0363    0.1276   -1.1230 C   0  0  0  0  0  0  0  0  0  0  0  0
   -1.3299    0.8409   -0.1411 C   0  0  0  0  0  0  0  0  0  0  0  0
   -1.6781    0.6807    1.2097 C   0  0  0  0  0  0  0  0  0  0  0  0
   -2.7287   -0.1675    1.5717 C   0  0  0  0  0  0  0  0  0  0  0  0
   -0.1768    1.7294   -0.5236 C   0  0  0  0  0  0  0  0  0  0  0  0
    1.1308    1.0107   -0.3209 C   0  0  0  0  0  0  0  0  0  0  0  0
    1.9742    1.3524    0.7489 C   0  0  0  0  0  0  0  0  0  0  0  0
    3.1828    0.6756    0.9385 C   0  0  0  0  0  0  0  0  0  0  0  0
    3.5631   -0.3502    0.0622 C   0  0  0  0  0  0  0  0  0  0  0  0
    4.7992   -1.0423    0.2573 N   0  0  0  0  0  0  0  0  0  0  0  0
    2.7234   -0.6934   -1.0064 C   0  0  0  0  0  0  0  0  0  0  0  0
    1.5146   -0.0176   -1.1972 C   0  0  0  0  0  0  0  0  0  0  0  0
  1  2  1  0
  2  7  2  0
  2  3  1  0
  3  4  2  0
  4  5  1  0
  5  8  1  0
  5  6  2  0
  6  7  1  0
  8  9  1  0
  9 15  1  0
  9 10  2  0
 10 11  1  0
 11 12  2  0
 12 14  1  0
 12 13  1  0
 14 15  2  0
M  END
$$$$
