CC(OCC(OC(C)=O)COC(C)=O)=O
     RDKit          3D

 15 14  0  0  0  0  0  0  0  0999 V2000
   -2.5914    3.4610    0.3545 C   0  0  0  0  0  0  0  0  0  0  0  0
   -1.3659    2.7427   -0.0975 C   0  0  0  0  0  0  0  0  0  0  0  0
   -1.1546    1.4191    0.2981 O   0  0  0  0  0  0  0  0  0  0  0  0
   -0.0105    0.6711   -0.1018 C   0  0  0  0  0  0  0  0  0  0  0  0
   -0.0824   -0.7421    0.4948 C   0  0  0  0  0  0  0  0  0  0  0  0
   -1.3424   -1.3669    0.2174 O   0  0  0  0  0  0  0  0  0  0  0  0
   -1.8426   -1.6668   -1.0580 C   0  0  0  0  0  0  0  0  0  0  0  0
   -3.1715   -2.3308   -1.1811 C   0  0  0  0  0  0  0  0  0  0  0  0
   -1.1744   -1.4217   -2.0980 O   0  0  0  0  0  0  0  0  0  0  0  0
    1.0888   -1.6232    0.0366 C   0  0  0  0  0  0  0  0  0  0  0  0
    2.3119   -1.1271    0.5827 O   0  0  0  0  0  0  0  0  0  0  0  0
    3.3904   -0.6793   -0.1889 C   0  0  0  0  0  0  0  0  0  0  0  0
    4.6140   -0.1692    0.4929 C   0  0  0  0  0  0  0  0  0  0  0  0
    3.3236   -0.6535   -1.4478 O   0  0  0  0  0  0  0  0  0  0  0  0
   -0.5316    3.3367   -0.8333 O   0  0  0  0  0  0  0  0  0  0  0  0
  1  2  1  0
  2 15  2  0
  2  3  1  0
  3  4  1  0
  4  5  1  0
  5 10  1  0
  5  6  1  0
  6  7  1  0
  7  8  1  0
  7  9  2  0
 10 11  1  0
 11 12  1  0
 12 13  1  0
 12 14  2  0
M  END
$$$$
