CCCN(CCC)CCC
     RDKit          3D

 10  9  0  0  0  0  0  0  0  0999 V2000
   -2.2436   -3.0710   -1.3228 C   0  0  0  0  0  0  0  0  0  0  0  0
   -1.5551   -2.2541   -0.2330 C   0  0  0  0  0  0  0  0  0  0  0  0
   -0.6704   -1.1575   -0.8314 C   0  0  0  0  0  0  0  0  0  0  0  0
   -0.0192   -0.3984    0.2618 N   0  0  0  0  0  0  0  0  0  0  0  0
   -0.7569    0.8437    0.6069 C   0  0  0  0  0  0  0  0  0  0  0  0
   -0.5199    2.0135   -0.3723 C   0  0  0  0  0  0  0  0  0  0  0  0
   -1.4823    3.1644   -0.0932 C   0  0  0  0  0  0  0  0  0  0  0  0
    1.4351   -0.2259    0.0417 C   0  0  0  0  0  0  0  0  0  0  0  0
    2.1477    0.2889    1.3022 C   0  0  0  0  0  0  0  0  0  0  0  0
    3.6639    0.2669    1.1279 C   0  0  0  0  0  0  0  0  0  0  0  0
  1  2  1  0
  2  3  1  0
  3  4  1  0
  4  5  1  0
  4  8  1  0
  5  6  1  0
  6  7  1  0
  8  9  1  0
  9 10  1  0
M  END
$$$$
