OC(Cc1ccccc1)=O
     RDKit          3D

 10 10  0  0  0  0  0  0  0  0999 V2000
    3.1602    0.6433   -0.1909 O   0  0  0  0  0  0  0  0  0  0  0  0
    2.3721   -0.4712    0.0788 C   0  0  0  0  0  0  0  0  0  0  0  0
    1.3239   -0.8978   -0.8990 C   0  0  0  0  0  0  0  0  0  0  0  0
   -0.0133   -0.3205   -0.5199 C   0  0  0  0  0  0  0  0  0  0  0  0
   -1.0311   -1.1475   -0.0143 C   0  0  0  0  0  0  0  0  0  0  0  0
   -2.2710   -0.6040    0.3369 C   0  0  0  0  0  0  0  0  0  0  0  0
   -2.5042    0.7656    0.1855 C   0  0  0  0  0  0  0  0  0  0  0  0
   -1.4980    1.5947   -0.3174 C   0  0  0  0  0  0  0  0  0  0  0  0
   -0.2567    1.0558   -0.6698 C   0  0  0  0  0  0  0  0  0  0  0  0
    2.5171   -1.0983    1.1622 O   0  0  0  0  0  0  0  0  0  0  0  0
  1  2  1  0
  2  3  1  0
  2 10  2  0
  3  4  1  0
  4  9  2  0
  4  5  1  0
  5  6  2  0
  6  7  1  0
  7  8  2  0
  8  9  1  0
M  END
$$$$
