CCCc1ccccc1
     RDKit          3D

  9  9  0  0  0  0  0  0  0  0999 V2000
    2.3476    0.2131   -0.8192 C   0  0  0  0  0  0  0  0  0  0  0  0
    2.1268   -0.4059    0.5607 C   0  0  0  0  0  0  0  0  0  0  0  0
    0.8567   -1.2677    0.6148 C   0  0  0  0  0  0  0  0  0  0  0  0
   -0.3976   -0.4468    0.4434 C   0  0  0  0  0  0  0  0  0  0  0  0
   -0.7992    0.4521    1.4465 C   0  0  0  0  0  0  0  0  0  0  0  0
   -1.9623    1.2119    1.2879 C   0  0  0  0  0  0  0  0  0  0  0  0
   -2.7342    1.0780    0.1308 C   0  0  0  0  0  0  0  0  0  0  0  0
   -2.3453    0.1825   -0.8690 C   0  0  0  0  0  0  0  0  0  0  0  0
   -1.1832   -0.5798   -0.7146 C   0  0  0  0  0  0  0  0  0  0  0  0
  1  2  1  0
  2  3  1  0
  3  4  1  0
  4  9  2  0
  4  5  1  0
  5  6  2  0
  6  7  1  0
  7  8  2  0
  8  9  1  0
M  END
$$$$
