O=CNc1ccccc1
     RDKit          3D

  9  9  0  0  0  0  0  0  0  0999 V2000
    2.6436    1.3678    0.7449 O   0  0  0  0  0  0  0  0  0  0  0  0
    2.8625    0.3257    0.0724 C   0  0  0  0  0  0  0  0  0  0  0  0
    1.7981   -0.5621   -0.2929 N   0  0  0  0  0  0  0  0  0  0  0  0
    0.4005   -0.2684   -0.1233 C   0  0  0  0  0  0  0  0  0  0  0  0
   -0.4938   -1.3159    0.1497 C   0  0  0  0  0  0  0  0  0  0  0  0
   -1.8606   -1.0601    0.2974 C   0  0  0  0  0  0  0  0  0  0  0  0
   -2.3481    0.2416    0.1585 C   0  0  0  0  0  0  0  0  0  0  0  0
   -1.4706    1.2880   -0.1365 C   0  0  0  0  0  0  0  0  0  0  0  0
   -0.1027    1.0366   -0.2841 C   0  0  0  0  0  0  0  0  0  0  0  0
  1  2  2  0
  2  3  1  0
  3  4  1  0
  4  9  2  0
  4  5  1  0
  5  6  2  0
  6  7  1  0
  7  8  2  0
  8  9  1  0
M  END
$$$$
