CC=Cc1ccc(OC)cc1
     RDKit          3D

 11 11  0  0  0  0  0  0  0  0999 V2000
    3.2457    0.8795    0.9734 C   0  0  0  0  0  0  0  0  0  0  0  0
    3.3532   -0.1970   -0.0646 C   0  0  0  0  0  0  0  0  0  0  0  0
    2.3000   -0.8163   -0.6156 C   0  0  0  0  0  0  0  0  0  0  0  0
    0.8926   -0.5550   -0.2513 C   0  0  0  0  0  0  0  0  0  0  0  0
   -0.0291   -0.2441   -1.2605 C   0  0  0  0  0  0  0  0  0  0  0  0
   -1.3729   -0.0181   -0.9472 C   0  0  0  0  0  0  0  0  0  0  0  0
   -1.8181   -0.1215    0.3845 C   0  0  0  0  0  0  0  0  0  0  0  0
   -3.1544    0.0972    0.7507 O   0  0  0  0  0  0  0  0  0  0  0  0
   -4.1907    0.4463   -0.1613 C   0  0  0  0  0  0  0  0  0  0  0  0
   -0.9009   -0.4610    1.3855 C   0  0  0  0  0  0  0  0  0  0  0  0
    0.4427   -0.6860    1.0723 C   0  0  0  0  0  0  0  0  0  0  0  0
  1  2  1  0
  2  3  2  0
  3  4  1  0
  4 11  2  0
  4  5  1  0
  5  6  2  0
  6  7  1  0
  7 10  2  0
  7  8  1  0
  8  9  1  0
 10 11  1  0
M  END
$$$$
