Oc1ccc(C)cc1C
     RDKit          3D

  9  9  0  0  0  0  0  0  0  0999 V2000
    1.8710   -2.1390    0.7460 O   0  0  0  0  0  0  0  0  0  0  0  0
    0.8611   -1.2814    0.3044 C   0  0  0  0  0  0  0  0  0  0  0  0
   -0.2458   -1.8391   -0.3445 C   0  0  0  0  0  0  0  0  0  0  0  0
   -1.2823   -1.0261   -0.8064 C   0  0  0  0  0  0  0  0  0  0  0  0
   -1.2188    0.3631   -0.6368 C   0  0  0  0  0  0  0  0  0  0  0  0
   -2.3510    1.2326   -1.0983 C   0  0  0  0  0  0  0  0  0  0  0  0
   -0.1207    0.9277    0.0288 C   0  0  0  0  0  0  0  0  0  0  0  0
    0.9285    0.1173    0.4977 C   0  0  0  0  0  0  0  0  0  0  0  0
    2.0990    0.7497    1.1991 C   0  0  0  0  0  0  0  0  0  0  0  0
  1  2  1  0
  2  3  2  0
  2  8  1  0
  3  4  1  0
  4  5  2  0
  5  6  1  0
  5  7  1  0
  7  8  2  0
  8  9  1  0
M  END
$$$$
