S=C(NCC)NCC
     RDKit          3D

  8  7  0  0  0  0  0  0  0  0999 V2000
    0.0470   -1.7214   -1.5546 S   0  0  0  0  0  0  0  0  0  0  0  0
    0.0123   -0.4493   -0.5077 C   0  0  0  0  0  0  0  0  0  0  0  0
    1.2344    0.1056    0.0077 N   0  0  0  0  0  0  0  0  0  0  0  0
    2.5580   -0.4078   -0.3526 C   0  0  0  0  0  0  0  0  0  0  0  0
    3.6604    0.3794    0.3485 C   0  0  0  0  0  0  0  0  0  0  0  0
   -1.2406    0.1230   -0.0955 N   0  0  0  0  0  0  0  0  0  0  0  0
   -2.5367   -0.3721   -0.5650 C   0  0  0  0  0  0  0  0  0  0  0  0
   -3.6826    0.4308    0.0423 C   0  0  0  0  0  0  0  0  0  0  0  0
  1  2  2  0
  2  3  1  0
  2  6  1  0
  3  4  1  0
  4  5  1  0
  6  7  1  0
  7  8  1  0
M  END
$$$$
