CC(OCC)OCC
     RDKit          3D

  8  7  0  0  0  0  0  0  0  0999 V2000
   -0.5121   -2.1948    1.0397 C   0  0  0  0  0  0  0  0  0  0  0  0
   -0.2357   -0.7079    0.8371 C   0  0  0  0  0  0  0  0  0  0  0  0
   -1.4472   -0.0056    1.0352 O   0  0  0  0  0  0  0  0  0  0  0  0
   -1.2373    1.3962    1.0289 C   0  0  0  0  0  0  0  0  0  0  0  0
   -1.8691    2.0050   -0.2157 C   0  0  0  0  0  0  0  0  0  0  0  0
    0.2165   -0.5031   -0.4927 O   0  0  0  0  0  0  0  0  0  0  0  0
    1.6212   -0.3637   -0.5281 C   0  0  0  0  0  0  0  0  0  0  0  0
    2.0728   -0.2319   -1.9739 C   0  0  0  0  0  0  0  0  0  0  0  0
  1  2  1  0
  2  6  1  0
  2  3  1  0
  3  4  1  0
  4  5  1  0
  6  7  1  0
  7  8  1  0
M  END
$$$$
