O=C(CC)OCC
     RDKit          3D

  7  6  0  0  0  0  0  0  0  0999 V2000
   -0.5295   -0.0276   -2.0534 O   0  0  0  0  0  0  0  0  0  0  0  0
   -0.5044    0.3940   -0.8647 C   0  0  0  0  0  0  0  0  0  0  0  0
   -1.6732    1.1508   -0.3197 C   0  0  0  0  0  0  0  0  0  0  0  0
   -2.6537    0.2037    0.3616 C   0  0  0  0  0  0  0  0  0  0  0  0
    0.5871    0.1237   -0.0345 O   0  0  0  0  0  0  0  0  0  0  0  0
    1.7227   -0.6127   -0.4757 C   0  0  0  0  0  0  0  0  0  0  0  0
    2.7256   -0.7319    0.6605 C   0  0  0  0  0  0  0  0  0  0  0  0
  1  2  2  0
  2  3  1  0
  2  5  1  0
  3  4  1  0
  5  6  1  0
  6  7  1  0
M  END
$$$$
