BrCCBr
     RDKit          3D

  4  3  0  0  0  0  0  0  0  0999 V2000
   -1.5557    1.4912    0.5871 Br  0  0  0  0  0  0  0  0  0  0  0  0
   -0.7540   -0.1157   -0.1483 C   0  0  0  0  0  0  0  0  0  0  0  0
    0.7349   -0.1846    0.1725 C   0  0  0  0  0  0  0  0  0  0  0  0
    1.7251    1.1702   -0.8020 Br  0  0  0  0  0  0  0  0  0  0  0  0
  1  2  1  0
  2  3  1  0
  3  4  1  0
M  END
$$$$
