O=C1CNC(CN1)=O
     RDKit          3D

  8  8  0  0  0  0  0  0  0  0999 V2000
   -2.2221   -1.4334   -0.4818 O   0  0  0  0  0  0  0  0  0  0  0  0
   -1.1853   -0.7693   -0.2158 C   0  0  0  0  0  0  0  0  0  0  0  0
   -1.3105    0.5978    0.3879 C   0  0  0  0  0  0  0  0  0  0  0  0
   -0.1325    1.4094    0.0906 N   0  0  0  0  0  0  0  0  0  0  0  0
    1.1641    0.8258   -0.0804 C   0  0  0  0  0  0  0  0  0  0  0  0
    1.3353   -0.6636   -0.0427 C   0  0  0  0  0  0  0  0  0  0  0  0
    0.1067   -1.3407   -0.4510 N   0  0  0  0  0  0  0  0  0  0  0  0
    2.1714    1.5682   -0.2250 O   0  0  0  0  0  0  0  0  0  0  0  0
  1  2  2  0
  2  3  1  0
  2  7  1  0
  3  4  1  0
  4  5  1  0
  5  6  1  0
  5  8  2  0
  6  7  1  0
M  END
$$$$
