C=CCBr
     RDKit          3D

  4  3  0  0  0  0  0  0  0  0999 V2000
   -1.2733   -0.5288   -0.0579 C   0  0  0  0  0  0  0  0  0  0  0  0
   -0.3382    0.2820    0.4445 C   0  0  0  0  0  0  0  0  0  0  0  0
    1.0099    0.4175   -0.1977 C   0  0  0  0  0  0  0  0  0  0  0  0
    2.0202   -1.2265   -0.0125 Br  0  0  0  0  0  0  0  0  0  0  0  0
  1  2  2  0
  2  3  1  0
  3  4  1  0
M  END
$$$$
