Clc1ccc(Cl)cc1
     RDKit          3D

  8  8  0  0  0  0  0  0  0  0999 V2000
    3.1151   -0.4944    0.0401 Cl  0  0  0  0  0  0  0  0  0  0  0  0
    1.3828   -0.2195    0.0178 C   0  0  0  0  0  0  0  0  0  0  0  0
    0.8804    1.0871    0.0261 C   0  0  0  0  0  0  0  0  0  0  0  0
   -0.5010    1.3063    0.0083 C   0  0  0  0  0  0  0  0  0  0  0  0
   -1.3828    0.2195   -0.0178 C   0  0  0  0  0  0  0  0  0  0  0  0
   -3.1151    0.4944   -0.0401 Cl  0  0  0  0  0  0  0  0  0  0  0  0
   -0.8804   -1.0871   -0.0261 C   0  0  0  0  0  0  0  0  0  0  0  0
    0.5010   -1.3063   -0.0083 C   0  0  0  0  0  0  0  0  0  0  0  0
  1  2  1  0
  2  8  2  0
  2  3  1  0
  3  4  2  0
  4  5  1  0
  5  7  2  0
  5  6  1  0
  7  8  1  0
M  END
$$$$
