CCCCCC(OC)=O
     RDKit          3D

  9  8  0  0  0  0  0  0  0  0999 V2000
   -3.1027    0.5557    0.4498 C   0  0  0  0  0  0  0  0  0  0  0  0
   -2.5285   -0.8300    0.1577 C   0  0  0  0  0  0  0  0  0  0  0  0
   -1.4274   -0.8116   -0.9175 C   0  0  0  0  0  0  0  0  0  0  0  0
   -0.1810    0.0158   -0.5541 C   0  0  0  0  0  0  0  0  0  0  0  0
    0.5669   -0.5360    0.6671 C   0  0  0  0  0  0  0  0  0  0  0  0
    1.8544    0.2000    0.8752 C   0  0  0  0  0  0  0  0  0  0  0  0
    2.8584    0.1211   -0.0946 O   0  0  0  0  0  0  0  0  0  0  0  0
    4.1034    0.7964    0.0351 C   0  0  0  0  0  0  0  0  0  0  0  0
    2.0274    0.8773    1.9254 O   0  0  0  0  0  0  0  0  0  0  0  0
  1  2  1  0
  2  3  1  0
  3  4  1  0
  4  5  1  0
  5  6  1  0
  6  9  2  0
  6  7  1  0
  7  8  1  0
M  END
$$$$
