Clc1ccc(N)cc1
     RDKit          3D

  8  8  0  0  0  0  0  0  0  0999 V2000
   -3.5876   -0.4090   -0.1022 Cl  0  0  0  0  0  0  0  0  0  0  0  0
   -1.8455   -0.2104   -0.0526 C   0  0  0  0  0  0  0  0  0  0  0  0
   -1.0106   -1.2297   -0.5234 C   0  0  0  0  0  0  0  0  0  0  0  0
    0.3786   -1.0722   -0.4842 C   0  0  0  0  0  0  0  0  0  0  0  0
    0.9407    0.1072    0.0268 C   0  0  0  0  0  0  0  0  0  0  0  0
    2.3609    0.2692    0.0673 N   0  0  0  0  0  0  0  0  0  0  0  0
    0.0999    1.1267    0.4978 C   0  0  0  0  0  0  0  0  0  0  0  0
   -1.2890    0.9675    0.4578 C   0  0  0  0  0  0  0  0  0  0  0  0
  1  2  1  0
  2  8  2  0
  2  3  1  0
  3  4  2  0
  4  5  1  0
  5  7  2  0
  5  6  1  0
  7  8  1  0
M  END
$$$$
