CCCCCCC(OCC)=O
     RDKit          3D

 11 10  0  0  0  0  0  0  0  0999 V2000
   -3.5516   -1.3214   -0.5710 C   0  0  0  0  0  0  0  0  0  0  0  0
   -4.0426   -0.1756    0.3111 C   0  0  0  0  0  0  0  0  0  0  0  0
   -3.1373    1.0659    0.2461 C   0  0  0  0  0  0  0  0  0  0  0  0
   -1.7373    0.8423    0.8560 C   0  0  0  0  0  0  0  0  0  0  0  0
   -0.6631    0.6201   -0.2195 C   0  0  0  0  0  0  0  0  0  0  0  0
    0.7093    0.3592    0.4183 C   0  0  0  0  0  0  0  0  0  0  0  0
    1.7987    0.1457   -0.5944 C   0  0  0  0  0  0  0  0  0  0  0  0
    3.0967   -0.1026   -0.1401 O   0  0  0  0  0  0  0  0  0  0  0  0
    4.1921   -0.3173   -1.0241 C   0  0  0  0  0  0  0  0  0  0  0  0
    5.4581   -0.5582   -0.2177 C   0  0  0  0  0  0  0  0  0  0  0  0
    1.5534    0.1882   -1.8324 O   0  0  0  0  0  0  0  0  0  0  0  0
  1  2  1  0
  2  3  1  0
  3  4  1  0
  4  5  1  0
  5  6  1  0
  6  7  1  0
  7 11  2  0
  7  8  1  0
  8  9  1  0
  9 10  1  0
M  END
$$$$
