Brc1ccc(O)cc1
     RDKit          3D

  8  8  0  0  0  0  0  0  0  0999 V2000
   -3.4943    0.4806    0.0227 Br  0  0  0  0  0  0  0  0  0  0  0  0
   -1.6073    0.1865    0.0064 C   0  0  0  0  0  0  0  0  0  0  0  0
   -1.1016   -1.1101   -0.1401 C   0  0  0  0  0  0  0  0  0  0  0  0
    0.2804   -1.3259   -0.1521 C   0  0  0  0  0  0  0  0  0  0  0  0
    1.1617   -0.2467   -0.0177 C   0  0  0  0  0  0  0  0  0  0  0  0
    2.5358   -0.4747   -0.0312 O   0  0  0  0  0  0  0  0  0  0  0  0
    0.6534    1.0523    0.1291 C   0  0  0  0  0  0  0  0  0  0  0  0
   -0.7286    1.2673    0.1410 C   0  0  0  0  0  0  0  0  0  0  0  0
  1  2  1  0
  2  8  2  0
  2  3  1  0
  3  4  2  0
  4  5  1  0
  5  7  2  0
  5  6  1  0
  7  8  1  0
M  END
$$$$
