CC1NCC(C)NC1
     RDKit          3D

  8  8  0  0  1  0  0  0  0  0999 V2000
   -2.6305   -0.1245   -0.2790 C   0  0  0  0  0  0  0  0  0  0  0  0
   -1.2771    0.5336   -0.5910 C   0  0  2  0  0  0  0  0  0  0  0  0
   -0.3415   -0.4097   -1.2421 N   0  0  0  0  0  0  0  0  0  0  0  0
    0.4583   -1.1577   -0.2658 C   0  0  0  0  0  0  0  0  0  0  0  0
    1.3423   -0.1938    0.5703 C   0  0  1  0  0  0  0  0  0  0  0  0
    2.7893   -0.1818    0.0609 C   0  0  0  0  0  0  0  0  0  0  0  0
    0.8033    1.1824    0.5972 N   0  0  0  0  0  0  0  0  0  0  0  0
   -0.6610    1.1701    0.6810 C   0  0  0  0  0  0  0  0  0  0  0  0
  2  1  1  1
  2  8  1  0
  2  3  1  0
  3  4  1  0
  4  5  1  0
  5  6  1  6
  5  7  1  0
  7  8  1  0
M  END
$$$$
