Brc1ccc(Br)cc1
     RDKit          3D

  8  8  0  0  0  0  0  0  0  0999 V2000
   -3.2971    0.2911   -0.0064 Br  0  0  0  0  0  0  0  0  0  0  0  0
   -1.3947    0.1232   -0.0027 C   0  0  0  0  0  0  0  0  0  0  0  0
   -0.8033   -1.1454    0.0019 C   0  0  0  0  0  0  0  0  0  0  0  0
    0.5901   -1.2685    0.0047 C   0  0  0  0  0  0  0  0  0  0  0  0
    1.3947   -0.1232    0.0027 C   0  0  0  0  0  0  0  0  0  0  0  0
    3.2971   -0.2911    0.0064 Br  0  0  0  0  0  0  0  0  0  0  0  0
    0.8033    1.1454   -0.0019 C   0  0  0  0  0  0  0  0  0  0  0  0
   -0.5901    1.2685   -0.0047 C   0  0  0  0  0  0  0  0  0  0  0  0
  1  2  1  0
  2  8  2  0
  2  3  1  0
  3  4  2  0
  4  5  1  0
  5  7  2  0
  5  6  1  0
  7  8  1  0
M  END
$$$$
