C=CC=O
     RDKit          3D

  4  3  0  0  0  0  0  0  0  0999 V2000
   -1.2109   -0.0201   -0.1470 C   0  0  0  0  0  0  0  0  0  0  0  0
   -0.0049    0.5220    0.0111 C   0  0  0  0  0  0  0  0  0  0  0  0
    1.2155   -0.2878    0.1406 C   0  0  0  0  0  0  0  0  0  0  0  0
    1.1746   -1.5467    0.1074 O   0  0  0  0  0  0  0  0  0  0  0  0
  1  2  2  0
  2  3  1  0
  3  4  2  0
M  END
$$$$
