CC(CCC)=O
     RDKit          3D

  6  5  0  0  0  0  0  0  0  0999 V2000
   -2.3321    0.1000    0.9604 C   0  0  0  0  0  0  0  0  0  0  0  0
   -1.4159   -0.4405   -0.0953 C   0  0  0  0  0  0  0  0  0  0  0  0
    0.0596   -0.5678    0.1679 C   0  0  0  0  0  0  0  0  0  0  0  0
    0.8572    0.3779   -0.7362 C   0  0  0  0  0  0  0  0  0  0  0  0
    2.3546    0.2676   -0.4646 C   0  0  0  0  0  0  0  0  0  0  0  0
   -1.8726   -0.7906   -1.1733 O   0  0  0  0  0  0  0  0  0  0  0  0
  1  2  1  0
  2  3  1  0
  2  6  2  0
  3  4  1  0
  4  5  1  0
M  END
$$$$
