ICCC
     RDKit          3D

  4  3  0  0  0  0  0  0  0  0999 V2000
    2.3505    1.2492    0.0115 I   0  0  0  0  0  0  0  0  0  0  0  0
    1.0623   -0.3595    0.5970 C   0  0  0  0  0  0  0  0  0  0  0  0
   -0.1089   -0.5350   -0.3715 C   0  0  0  0  0  0  0  0  0  0  0  0
   -1.1342    0.5902   -0.2458 C   0  0  0  0  0  0  0  0  0  0  0  0
  1  2  1  0
  2  3  1  0
  3  4  1  0
M  END
$$$$
