CC(C)CCBr
     RDKit          3D

  6  5  0  0  0  0  0  0  0  0999 V2000
   -1.5831   -1.1391    0.0945 C   0  0  0  0  0  0  0  0  0  0  0  0
   -0.5032   -0.1053   -0.2500 C   0  0  0  0  0  0  0  0  0  0  0  0
   -0.9742    1.2974    0.1631 C   0  0  0  0  0  0  0  0  0  0  0  0
    0.8310   -0.4883    0.4285 C   0  0  0  0  0  0  0  0  0  0  0  0
    2.0116    0.3493   -0.0698 C   0  0  0  0  0  0  0  0  0  0  0  0
    3.6669   -0.3234    0.6801 Br  0  0  0  0  0  0  0  0  0  0  0  0
  1  2  1  0
  2  3  1  0
  2  4  1  0
  4  5  1  0
  5  6  1  0
M  END
$$$$
