Clc1ccccc1
     RDKit          3D

  7  7  0  0  0  0  0  0  0  0999 V2000
    2.7095   -1.5037   -0.0449 Cl  0  0  0  0  0  0  0  0  0  0  0  0
    1.1760   -0.6526   -0.0195 C   0  0  0  0  0  0  0  0  0  0  0  0
   -0.0252   -1.3721   -0.0199 C   0  0  0  0  0  0  0  0  0  0  0  0
   -1.2479   -0.6928    0.0004 C   0  0  0  0  0  0  0  0  0  0  0  0
   -1.2714    0.7056    0.0211 C   0  0  0  0  0  0  0  0  0  0  0  0
   -0.0721    1.4253    0.0215 C   0  0  0  0  0  0  0  0  0  0  0  0
    1.1513    0.7472    0.0013 C   0  0  0  0  0  0  0  0  0  0  0  0
  1  2  1  0
  2  7  2  0
  2  3  1  0
  3  4  2  0
  4  5  1  0
  5  6  2  0
  6  7  1  0
M  END
$$$$
