Oc1ccccc1
     RDKit          3D

  7  7  0  0  0  0  0  0  0  0999 V2000
    2.4172   -0.7016   -0.0147 O   0  0  0  0  0  0  0  0  0  0  0  0
    1.0715   -0.3419   -0.0110 C   0  0  0  0  0  0  0  0  0  0  0  0
    0.6889    0.9957    0.1693 C   0  0  0  0  0  0  0  0  0  0  0  0
   -0.6662    1.3428    0.1708 C   0  0  0  0  0  0  0  0  0  0  0  0
   -1.6416    0.3567   -0.0074 C   0  0  0  0  0  0  0  0  0  0  0  0
   -1.2627   -0.9774   -0.1873 C   0  0  0  0  0  0  0  0  0  0  0  0
    0.0920   -1.3263   -0.1891 C   0  0  0  0  0  0  0  0  0  0  0  0
  1  2  1  0
  2  7  2  0
  2  3  1  0
  3  4  2  0
  4  5  1  0
  5  6  2  0
  6  7  1  0
M  END
$$$$
