Cc1cc(C)ncc1
     RDKit          3D

  8  8  0  0  0  0  0  0  0  0999 V2000
    2.3185   -0.9866   -0.0171 C   0  0  0  0  0  0  0  0  0  0  0  0
    1.0811   -0.1391   -0.0421 C   0  0  0  0  0  0  0  0  0  0  0  0
   -0.1908   -0.7166    0.0861 C   0  0  0  0  0  0  0  0  0  0  0  0
   -1.3272    0.1033    0.0588 C   0  0  0  0  0  0  0  0  0  0  0  0
   -2.6921   -0.4927    0.1939 C   0  0  0  0  0  0  0  0  0  0  0  0
   -1.1866    1.4489   -0.0915 N   0  0  0  0  0  0  0  0  0  0  0  0
    0.0347    2.0320   -0.2177 C   0  0  0  0  0  0  0  0  0  0  0  0
    1.1907    1.2491   -0.1953 C   0  0  0  0  0  0  0  0  0  0  0  0
  1  2  1  0
  2  3  2  0
  2  8  1  0
  3  4  1  0
  4  5  1  0
  4  6  2  0
  6  7  1  0
  7  8  2  0
M  END
$$$$
