CC(CC(C)C)=O
     RDKit          3D

  7  6  0  0  0  0  0  0  0  0999 V2000
    2.3940    1.1423    0.2539 C   0  0  0  0  0  0  0  0  0  0  0  0
    1.1072    1.1683   -0.5142 C   0  0  0  0  0  0  0  0  0  0  0  0
    0.3765   -0.1125   -0.8225 C   0  0  0  0  0  0  0  0  0  0  0  0
   -1.0149   -0.1616   -0.1570 C   0  0  0  0  0  0  0  0  0  0  0  0
   -0.9053   -0.1943    1.3747 C   0  0  0  0  0  0  0  0  0  0  0  0
   -1.7951   -1.3849   -0.6534 C   0  0  0  0  0  0  0  0  0  0  0  0
    0.6552    2.2345   -0.9042 O   0  0  0  0  0  0  0  0  0  0  0  0
  1  2  1  0
  2  3  1  0
  2  7  2  0
  3  4  1  0
  4  6  1  0
  4  5  1  0
M  END
$$$$
