Cc1nc(C)ccc1
     RDKit          3D

  8  8  0  0  0  0  0  0  0  0999 V2000
    2.4064   -0.9462    0.6564 C   0  0  0  0  0  0  0  0  0  0  0  0
    1.1777   -0.2156    0.2135 C   0  0  0  0  0  0  0  0  0  0  0  0
   -0.0377   -0.8136    0.3503 N   0  0  0  0  0  0  0  0  0  0  0  0
   -1.1919   -0.2016   -0.0334 C   0  0  0  0  0  0  0  0  0  0  0  0
   -2.5011   -0.9033    0.1390 C   0  0  0  0  0  0  0  0  0  0  0  0
   -1.1451    1.0838   -0.5881 C   0  0  0  0  0  0  0  0  0  0  0  0
    0.0887    1.7187   -0.7391 C   0  0  0  0  0  0  0  0  0  0  0  0
    1.2588    1.0713   -0.3383 C   0  0  0  0  0  0  0  0  0  0  0  0
  1  2  1  0
  2  8  2  0
  2  3  1  0
  3  4  2  0
  4  5  1  0
  4  6  1  0
  6  7  2  0
  7  8  1  0
M  END
$$$$
