Clc1cc(Cl)cc(Cl)c1
     RDKit          3D

  9  9  0  0  0  0  0  0  0  0999 V2000
   -1.2995    2.8739   -0.0051 Cl  0  0  0  0  0  0  0  0  0  0  0  0
   -0.5768    1.2756   -0.0023 C   0  0  0  0  0  0  0  0  0  0  0  0
   -1.3923    0.1384    0.0307 C   0  0  0  0  0  0  0  0  0  0  0  0
   -0.8160   -1.1371    0.0329 C   0  0  0  0  0  0  0  0  0  0  0  0
   -1.8383   -2.5619    0.0742 Cl  0  0  0  0  0  0  0  0  0  0  0  0
    0.5766   -1.2752    0.0023 C   0  0  0  0  0  0  0  0  0  0  0  0
    1.3928   -0.1385   -0.0307 C   0  0  0  0  0  0  0  0  0  0  0  0
    3.1379   -0.3120   -0.0691 Cl  0  0  0  0  0  0  0  0  0  0  0  0
    0.8157    1.1367   -0.0329 C   0  0  0  0  0  0  0  0  0  0  0  0
  1  2  1  0
  2  9  2  0
  2  3  1  0
  3  4  2  0
  4  6  1  0
  4  5  1  0
  6  7  2  0
  7  9  1  0
  7  8  1  0
M  END
$$$$
