OC1CCCCC1
     RDKit          3D

  7  7  0  0  0  0  0  0  0  0999 V2000
   -2.3223   -0.4975   -0.6827 O   0  0  0  0  0  0  0  0  0  0  0  0
   -1.3069   -0.1893    0.2370 C   0  0  0  0  0  0  0  0  0  0  0  0
   -0.6710    1.1749   -0.1278 C   0  0  0  0  0  0  0  0  0  0  0  0
    0.7886    1.2610    0.3299 C   0  0  0  0  0  0  0  0  0  0  0  0
    1.6601    0.1838   -0.3472 C   0  0  0  0  0  0  0  0  0  0  0  0
    0.8832   -1.1007   -0.7013 C   0  0  0  0  0  0  0  0  0  0  0  0
   -0.2782   -1.3439    0.2686 C   0  0  0  0  0  0  0  0  0  0  0  0
  1  2  1  0
  2  3  1  0
  2  7  1  0
  3  4  1  0
  4  5  1  0
  5  6  1  0
  6  7  1  0
M  END
$$$$
