Brc1cc(Cl)ccc1
     RDKit          3D

  8  8  0  0  0  0  0  0  0  0999 V2000
    3.1645   -0.8205   -0.0494 Br  0  0  0  0  0  0  0  0  0  0  0  0
    1.3232   -0.3143   -0.0212 C   0  0  0  0  0  0  0  0  0  0  0  0
    0.3270   -1.2970    0.0182 C   0  0  0  0  0  0  0  0  0  0  0  0
   -1.0229   -0.9260    0.0389 C   0  0  0  0  0  0  0  0  0  0  0  0
   -2.2712   -2.1574    0.0884 Cl  0  0  0  0  0  0  0  0  0  0  0  0
   -1.3753    0.4286    0.0201 C   0  0  0  0  0  0  0  0  0  0  0  0
   -0.3798    1.4101   -0.0193 C   0  0  0  0  0  0  0  0  0  0  0  0
    0.9686    1.0396   -0.0400 C   0  0  0  0  0  0  0  0  0  0  0  0
  1  2  1  0
  2  8  2  0
  2  3  1  0
  3  4  2  0
  4  6  1  0
  4  5  1  0
  6  7  2  0
  7  8  1  0
M  END
$$$$
