C(OCC)=O
     RDKit          3D

  5  4  0  0  0  0  0  0  0  0999 V2000
    1.8981   -0.0573    0.0054 C   0  0  0  0  0  0  0  0  0  0  0  0
    0.7936   -0.6447    0.6303 O   0  0  0  0  0  0  0  0  0  0  0  0
   -0.4796   -0.0097    0.7325 C   0  0  0  0  0  0  0  0  0  0  0  0
   -1.2163   -0.0610   -0.6011 C   0  0  0  0  0  0  0  0  0  0  0  0
    1.8344    1.1063   -0.4742 O   0  0  0  0  0  0  0  0  0  0  0  0
  1  5  2  0
  1  2  1  0
  2  3  1  0
  3  4  1  0
M  END
$$$$
