CCCCS
     RDKit          3D

  5  4  0  0  0  0  0  0  0  0999 V2000
   -1.5758    0.5222   -0.5541 C   0  0  0  0  0  0  0  0  0  0  0  0
   -0.9775    0.0112    0.7549 C   0  0  0  0  0  0  0  0  0  0  0  0
    0.5572    0.1046    0.7969 C   0  0  0  0  0  0  0  0  0  0  0  0
    1.2619   -0.8755   -0.1548 C   0  0  0  0  0  0  0  0  0  0  0  0
    1.4988   -0.1602   -1.8149 S   0  0  0  0  0  0  0  0  0  0  0  0
  1  2  1  0
  2  3  1  0
  3  4  1  0
  4  5  1  0
M  END
$$$$
