COCOC
     RDKit          3D

  5  4  0  0  0  0  0  0  0  0999 V2000
   -2.2849   -0.3075   -0.0366 C   0  0  0  0  0  0  0  0  0  0  0  0
   -1.1252   -0.5086    0.7406 O   0  0  0  0  0  0  0  0  0  0  0  0
    0.0005   -0.0205    0.0437 C   0  0  0  0  0  0  0  0  0  0  0  0
    1.1434   -0.2345    0.8431 O   0  0  0  0  0  0  0  0  0  0  0  0
    2.2864    0.2449    0.1700 C   0  0  0  0  0  0  0  0  0  0  0  0
  1  2  1  0
  2  3  1  0
  3  4  1  0
  4  5  1  0
M  END
$$$$
