C=CCCC
     RDKit          3D

  5  4  0  0  0  0  0  0  0  0999 V2000
    1.9710    0.1701    0.9079 C   0  0  0  0  0  0  0  0  0  0  0  0
    1.4089   -0.1185   -0.2694 C   0  0  0  0  0  0  0  0  0  0  0  0
    0.2343    0.6585   -0.8019 C   0  0  0  0  0  0  0  0  0  0  0  0
   -1.0526   -0.1748   -0.7687 C   0  0  0  0  0  0  0  0  0  0  0  0
   -1.5431   -0.4269    0.6567 C   0  0  0  0  0  0  0  0  0  0  0  0
  1  2  2  0
  2  3  1  0
  3  4  1  0
  4  5  1  0
M  END
$$$$
