c1ccc[nH]1
     RDKit          3D

  5  5  0  0  0  0  0  0  0  0999 V2000
   -0.8757   -0.7335   -0.0112 C   0  0  0  0  0  0  0  0  0  0  0  0
   -0.9894    0.6416   -0.0263 C   0  0  0  0  0  0  0  0  0  0  0  0
    0.2974    1.1414   -0.0044 C   0  0  0  0  0  0  0  0  0  0  0  0
    1.1410    0.0497    0.0230 C   0  0  0  0  0  0  0  0  0  0  0  0
    0.4217   -1.0866    0.0187 N   0  0  0  0  0  0  0  0  0  0  0  0
  1  5  1  0
  1  2  2  0
  2  3  1  0
  3  4  2  0
  4  5  1  0
M  END
$$$$
