C1CCOC1
     RDKit          3D

  5  5  0  0  0  0  0  0  0  0999 V2000
   -1.0153    0.2225   -0.2167 C   0  0  0  0  0  0  0  0  0  0  0  0
    0.2185    1.0390    0.0008 C   0  0  0  0  0  0  0  0  0  0  0  0
    1.3253    0.0083   -0.0757 C   0  0  0  0  0  0  0  0  0  0  0  0
    0.8001   -1.2667    0.2167 O   0  0  0  0  0  0  0  0  0  0  0  0
   -0.6037   -1.1508    0.2712 C   0  0  0  0  0  0  0  0  0  0  0  0
  1  2  1  0
  1  5  1  0
  2  3  1  0
  3  4  1  0
  4  5  1  0
M  END
$$$$
