ClCCCC
     RDKit          3D

  5  4  0  0  0  0  0  0  0  0999 V2000
    1.4912    1.9006    0.6338 Cl  0  0  0  0  0  0  0  0  0  0  0  0
    1.5539    0.4511   -0.4054 C   0  0  0  0  0  0  0  0  0  0  0  0
    0.7246   -0.7008    0.1795 C   0  0  0  0  0  0  0  0  0  0  0  0
   -0.7531   -0.6747   -0.2460 C   0  0  0  0  0  0  0  0  0  0  0  0
   -1.5348    0.4858    0.3661 C   0  0  0  0  0  0  0  0  0  0  0  0
  1  2  1  0
  2  3  1  0
  3  4  1  0
  4  5  1  0
M  END
$$$$
