C1COCCN1
     RDKit          3D

  6  6  0  0  0  0  0  0  0  0999 V2000
    1.0883    0.7456   -0.2553 C   0  0  0  0  0  0  0  0  0  0  0  0
    1.0852   -0.1598    0.9883 C   0  0  0  0  0  0  0  0  0  0  0  0
    0.2988   -1.3351    0.8395 O   0  0  0  0  0  0  0  0  0  0  0  0
   -0.7689   -1.1956   -0.0883 C   0  0  0  0  0  0  0  0  0  0  0  0
   -1.3152    0.2399   -0.1871 C   0  0  0  0  0  0  0  0  0  0  0  0
   -0.2717    1.1965   -0.5944 N   0  0  0  0  0  0  0  0  0  0  0  0
  1  2  1  0
  1  6  1  0
  2  3  1  0
  3  4  1  0
  4  5  1  0
  5  6  1  0
M  END
$$$$
