CC=CC=CC(O)=O
     RDKit          3D

  8  7  0  0  0  0  0  0  0  0999 V2000
    2.6979   -0.2872    0.6407 C   0  0  0  0  0  0  0  0  0  0  0  0
    1.8500   -0.4801   -0.5799 C   0  0  0  0  0  0  0  0  0  0  0  0
    0.5543   -0.1484   -0.6465 C   0  0  0  0  0  0  0  0  0  0  0  0
   -0.1798    0.4881    0.4720 C   0  0  0  0  0  0  0  0  0  0  0  0
   -1.5144    0.6124    0.5423 C   0  0  0  0  0  0  0  0  0  0  0  0
   -2.4978    0.0146   -0.3824 C   0  0  0  0  0  0  0  0  0  0  0  0
   -3.7978    0.5094   -0.3912 O   0  0  0  0  0  0  0  0  0  0  0  0
   -2.2039   -0.9664   -1.1161 O   0  0  0  0  0  0  0  0  0  0  0  0
  1  2  1  0
  2  3  2  0
  3  4  1  0
  4  5  2  0
  5  6  1  0
  6  7  1  0
  6  8  2  0
M  END
$$$$
