CCCCC=O
     RDKit          3D

  6  5  0  0  0  0  0  0  0  0999 V2000
   -1.9480   -0.0674   -0.7421 C   0  0  0  0  0  0  0  0  0  0  0  0
   -1.2609   -0.0532    0.6232 C   0  0  0  0  0  0  0  0  0  0  0  0
    0.1823    0.4697    0.5571 C   0  0  0  0  0  0  0  0  0  0  0  0
    1.1350   -0.5162   -0.1311 C   0  0  0  0  0  0  0  0  0  0  0  0
    2.5462   -0.0147   -0.0592 C   0  0  0  0  0  0  0  0  0  0  0  0
    3.1722    0.2229   -1.0798 O   0  0  0  0  0  0  0  0  0  0  0  0
  1  2  1  0
  2  3  1  0
  3  4  1  0
  4  5  1  0
  5  6  2  0
M  END
$$$$
