CCCCCCCCCC(OCC)=O
     RDKit          3D

 14 13  0  0  0  0  0  0  0  0999 V2000
   -6.3842   -1.2738    0.3466 C   0  0  0  0  0  0  0  0  0  0  0  0
   -4.8606   -1.1904    0.3318 C   0  0  0  0  0  0  0  0  0  0  0  0
   -4.3507   -0.2067    1.3951 C   0  0  0  0  0  0  0  0  0  0  0  0
   -2.8177   -0.1944    1.5032 C   0  0  0  0  0  0  0  0  0  0  0  0
   -2.1441    0.4651    0.2903 C   0  0  0  0  0  0  0  0  0  0  0  0
   -0.6285    0.5763    0.4971 C   0  0  0  0  0  0  0  0  0  0  0  0
    0.0480    1.2156   -0.7249 C   0  0  0  0  0  0  0  0  0  0  0  0
    1.5487    1.4647   -0.5074 C   0  0  0  0  0  0  0  0  0  0  0  0
    2.3655    0.1652   -0.4792 C   0  0  0  0  0  0  0  0  0  0  0  0
    3.8317    0.4604   -0.4203 C   0  0  0  0  0  0  0  0  0  0  0  0
    4.6546    0.0775   -1.4857 O   0  0  0  0  0  0  0  0  0  0  0  0
    6.0670    0.2750   -1.4971 C   0  0  0  0  0  0  0  0  0  0  0  0
    6.7607   -0.7470   -0.6040 C   0  0  0  0  0  0  0  0  0  0  0  0
    4.3124    1.0485    0.5871 O   0  0  0  0  0  0  0  0  0  0  0  0
  1  2  1  0
  2  3  1  0
  3  4  1  0
  4  5  1  0
  5  6  1  0
  6  7  1  0
  7  8  1  0
  8  9  1  0
  9 10  1  0
 10 14  2  0
 10 11  1  0
 11 12  1  0
 12 13  1  0
M  END
$$$$
