C1CCCCC1
     RDKit          3D

  6  6  0  0  0  0  0  0  0  0999 V2000
   -1.1160   -0.9525    0.1854 C   0  0  0  0  0  0  0  0  0  0  0  0
    0.2382   -1.4120   -0.3697 C   0  0  0  0  0  0  0  0  0  0  0  0
    1.3757   -0.5222    0.1476 C   0  0  0  0  0  0  0  0  0  0  0  0
    1.1160    0.9525   -0.1854 C   0  0  0  0  0  0  0  0  0  0  0  0
   -0.2382    1.4120    0.3697 C   0  0  0  0  0  0  0  0  0  0  0  0
   -1.3757    0.5222   -0.1476 C   0  0  0  0  0  0  0  0  0  0  0  0
  1  6  1  0
  1  2  1  0
  2  3  1  0
  3  4  1  0
  4  5  1  0
  5  6  1  0
M  END
$$$$
