c1cnccc1
     RDKit          3D

  6  6  0  0  0  0  0  0  0  0999 V2000
    1.2071    0.4742   -0.0533 C   0  0  0  0  0  0  0  0  0  0  0  0
    1.1877   -0.9230   -0.0250 C   0  0  0  0  0  0  0  0  0  0  0  0
    0.0015   -1.5868    0.0314 N   0  0  0  0  0  0  0  0  0  0  0  0
   -1.1860   -0.9235    0.0615 C   0  0  0  0  0  0  0  0  0  0  0  0
   -1.2080    0.4736    0.0346 C   0  0  0  0  0  0  0  0  0  0  0  0
   -0.0011    1.1744   -0.0232 C   0  0  0  0  0  0  0  0  0  0  0  0
  1  2  2  0
  1  6  1  0
  2  3  1  0
  3  4  2  0
  4  5  1  0
  5  6  2  0
M  END
$$$$
