CCCCCC
     RDKit          3D

  6  5  0  0  0  0  0  0  0  0999 V2000
    2.6598    0.6005    0.2584 C   0  0  0  0  0  0  0  0  0  0  0  0
    1.9429   -0.6786    0.6897 C   0  0  0  0  0  0  0  0  0  0  0  0
    0.6268   -0.9074   -0.0694 C   0  0  0  0  0  0  0  0  0  0  0  0
   -0.4703    0.0870    0.3384 C   0  0  0  0  0  0  0  0  0  0  0  0
   -1.7989   -0.2510   -0.3479 C   0  0  0  0  0  0  0  0  0  0  0  0
   -2.8911    0.7393    0.0459 C   0  0  0  0  0  0  0  0  0  0  0  0
  1  2  1  0
  2  3  1  0
  3  4  1  0
  4  5  1  0
  5  6  1  0
M  END
$$$$
