c1ccco1
     RDKit          3D

  5  5  0  0  0  0  0  0  0  0999 V2000
    1.0922   -0.5648    0.0375 C   0  0  0  0  0  0  0  0  0  0  0  0
    0.6504    0.6902   -0.3251 C   0  0  0  0  0  0  0  0  0  0  0  0
   -0.7199    0.6647   -0.1840 C   0  0  0  0  0  0  0  0  0  0  0  0
   -1.0322   -0.6043    0.2562 C   0  0  0  0  0  0  0  0  0  0  0  0
    0.0673   -1.3117    0.3781 O   0  0  0  0  0  0  0  0  0  0  0  0
  1  5  1  0
  1  2  2  0
  2  3  1  0
  3  4  2  0
  4  5  1  0
M  END
$$$$
