c1cccs1
     RDKit          3D

  5  5  0  0  0  0  0  0  0  0999 V2000
    1.2574    0.5858    0.0556 C   0  0  0  0  0  0  0  0  0  0  0  0
    0.6968   -0.6833    0.0240 C   0  0  0  0  0  0  0  0  0  0  0  0
   -0.7023   -0.6772   -0.0334 C   0  0  0  0  0  0  0  0  0  0  0  0
   -1.2526    0.5968   -0.0474 C   0  0  0  0  0  0  0  0  0  0  0  0
    0.0070    1.7078    0.0118 S   0  0  0  0  0  0  0  0  0  0  0  0
  1  5  1  0
  1  2  2  0
  2  3  1  0
  3  4  2  0
  4  5  1  0
M  END
$$$$
