C1CCCCN1
     RDKit          3D

  6  6  0  0  0  0  0  0  0  0999 V2000
   -1.4771   -0.3342   -0.1453 C   0  0  0  0  0  0  0  0  0  0  0  0
   -0.9054    1.0604    0.1467 C   0  0  0  0  0  0  0  0  0  0  0  0
    0.5282    1.1731   -0.3778 C   0  0  0  0  0  0  0  0  0  0  0  0
    1.3919    0.0322    0.1656 C   0  0  0  0  0  0  0  0  0  0  0  0
    0.7367   -1.3251   -0.1271 C   0  0  0  0  0  0  0  0  0  0  0  0
   -0.6265   -1.3921    0.4200 N   0  0  0  0  0  0  0  0  0  0  0  0
  1  2  1  0
  1  6  1  0
  2  3  1  0
  3  4  1  0
  4  5  1  0
  5  6  1  0
M  END
$$$$
