CCCCCCCCCC(OC)=O
     RDKit          3D

 13 12  0  0  0  0  0  0  0  0999 V2000
   -3.9340    1.4281   -1.2067 C   0  0  0  0  0  0  0  0  0  0  0  0
   -3.2097    1.2412    0.1268 C   0  0  0  0  0  0  0  0  0  0  0  0
   -3.1883   -0.2268    0.5859 C   0  0  0  0  0  0  0  0  0  0  0  0
   -2.1920   -1.1101   -0.2002 C   0  0  0  0  0  0  0  0  0  0  0  0
   -0.8997   -1.4226    0.5775 C   0  0  0  0  0  0  0  0  0  0  0  0
    0.0246   -0.2107    0.7989 C   0  0  0  0  0  0  0  0  0  0  0  0
    0.5929    0.4210   -0.4890 C   0  0  0  0  0  0  0  0  0  0  0  0
    1.3874   -0.5399   -1.3968 C   0  0  0  0  0  0  0  0  0  0  0  0
    2.5909   -1.2091   -0.7135 C   0  0  0  0  0  0  0  0  0  0  0  0
    3.5816   -0.2064   -0.2063 C   0  0  0  0  0  0  0  0  0  0  0  0
    3.8284   -0.1171    1.1665 O   0  0  0  0  0  0  0  0  0  0  0  0
    4.7368    0.8262    1.7212 C   0  0  0  0  0  0  0  0  0  0  0  0
    4.1853    0.5464   -1.0191 O   0  0  0  0  0  0  0  0  0  0  0  0
  1  2  1  0
  2  3  1  0
  3  4  1  0
  4  5  1  0
  5  6  1  0
  6  7  1  0
  7  8  1  0
  8  9  1  0
  9 10  1  0
 10 13  2  0
 10 11  1  0
 11 12  1  0
M  END
$$$$
