CCCCNCCCC
     RDKit          3D

  9  8  0  0  0  0  0  0  0  0999 V2000
    4.1671   -0.8729    0.4433 C   0  0  0  0  0  0  0  0  0  0  0  0
    3.4493    0.3922   -0.0262 C   0  0  0  0  0  0  0  0  0  0  0  0
    2.1505    0.0910   -0.7899 C   0  0  0  0  0  0  0  0  0  0  0  0
    1.0413   -0.4538    0.1200 C   0  0  0  0  0  0  0  0  0  0  0  0
   -0.2058   -0.6103   -0.6454 N   0  0  0  0  0  0  0  0  0  0  0  0
   -1.0639    0.5877   -0.5834 C   0  0  0  0  0  0  0  0  0  0  0  0
   -1.9666    0.6123    0.6696 C   0  0  0  0  0  0  0  0  0  0  0  0
   -3.2242   -0.2669    0.5424 C   0  0  0  0  0  0  0  0  0  0  0  0
   -4.3072    0.3768   -0.3240 C   0  0  0  0  0  0  0  0  0  0  0  0
  1  2  1  0
  2  3  1  0
  3  4  1  0
  4  5  1  0
  5  6  1  0
  6  7  1  0
  7  8  1  0
  8  9  1  0
M  END
$$$$
