CCCOCCC
     RDKit          3D

  7  6  0  0  0  0  0  0  0  0999 V2000
    3.4758   -0.0961   -0.0769 C   0  0  0  0  0  0  0  0  0  0  0  0
    2.2523   -0.0624    0.8346 C   0  0  0  0  0  0  0  0  0  0  0  0
    0.9998    0.3630    0.0702 C   0  0  0  0  0  0  0  0  0  0  0  0
   -0.0973    0.3840    0.9599 O   0  0  0  0  0  0  0  0  0  0  0  0
   -1.3011    0.6400    0.2606 C   0  0  0  0  0  0  0  0  0  0  0  0
   -2.0262   -0.6757   -0.0375 C   0  0  0  0  0  0  0  0  0  0  0  0
   -3.3687   -0.4273   -0.7189 C   0  0  0  0  0  0  0  0  0  0  0  0
  1  2  1  0
  2  3  1  0
  3  4  1  0
  4  5  1  0
  5  6  1  0
  6  7  1  0
M  END
$$$$
