CCCCCCCCO
     RDKit          3D

  9  8  0  0  0  0  0  0  0  0999 V2000
   -3.1112   -1.0916   -1.0935 C   0  0  0  0  0  0  0  0  0  0  0  0
   -2.7188    0.3802   -0.9681 C   0  0  0  0  0  0  0  0  0  0  0  0
   -1.2988    0.5699   -0.4132 C   0  0  0  0  0  0  0  0  0  0  0  0
   -1.1838    0.1612    1.0643 C   0  0  0  0  0  0  0  0  0  0  0  0
    0.1451    0.5992    1.7037 C   0  0  0  0  0  0  0  0  0  0  0  0
    1.3780   -0.1248    1.1225 C   0  0  0  0  0  0  0  0  0  0  0  0
    2.1501    0.7524    0.1233 C   0  0  0  0  0  0  0  0  0  0  0  0
    3.3518    0.0139   -0.4680 C   0  0  0  0  0  0  0  0  0  0  0  0
    2.9169   -1.0569   -1.2599 O   0  0  0  0  0  0  0  0  0  0  0  0
  1  2  1  0
  2  3  1  0
  3  4  1  0
  4  5  1  0
  5  6  1  0
  6  7  1  0
  7  8  1  0
  8  9  1  0
M  END
$$$$
