CC(CCCCCC)=O
     RDKit          3D

  9  8  0  0  0  0  0  0  0  0999 V2000
    3.5758    1.0658    0.6693 C   0  0  0  0  0  0  0  0  0  0  0  0
    2.9202   -0.1521    0.0924 C   0  0  0  0  0  0  0  0  0  0  0  0
    1.6834   -0.7256    0.7280 C   0  0  0  0  0  0  0  0  0  0  0  0
    0.4767   -0.5870   -0.2064 C   0  0  0  0  0  0  0  0  0  0  0  0
   -0.7916   -1.1632    0.4411 C   0  0  0  0  0  0  0  0  0  0  0  0
   -2.0342   -0.9971   -0.4589 C   0  0  0  0  0  0  0  0  0  0  0  0
   -2.9485    0.1655   -0.0376 C   0  0  0  0  0  0  0  0  0  0  0  0
   -2.3007    1.5355   -0.2263 C   0  0  0  0  0  0  0  0  0  0  0  0
    3.3997   -0.6887   -0.8953 O   0  0  0  0  0  0  0  0  0  0  0  0
  1  2  1  0
  2  3  1  0
  2  9  2  0
  3  4  1  0
  4  5  1  0
  5  6  1  0
  6  7  1  0
  7  8  1  0
M  END
$$$$
