CCCCCCCCN
     RDKit          3D

  9  8  0  0  0  0  0  0  0  0999 V2000
    3.0394    1.6175    0.5345 C   0  0  0  0  0  0  0  0  0  0  0  0
    3.2449    0.1181    0.3199 C   0  0  0  0  0  0  0  0  0  0  0  0
    2.1193   -0.5247   -0.5052 C   0  0  0  0  0  0  0  0  0  0  0  0
    0.7969   -0.6162    0.2709 C   0  0  0  0  0  0  0  0  0  0  0  0
   -0.2720   -1.3520   -0.5508 C   0  0  0  0  0  0  0  0  0  0  0  0
   -1.5616   -1.6223    0.2457 C   0  0  0  0  0  0  0  0  0  0  0  0
   -2.2987   -0.3628    0.7361 C   0  0  0  0  0  0  0  0  0  0  0  0
   -2.7633    0.5450   -0.4090 C   0  0  0  0  0  0  0  0  0  0  0  0
   -3.6297    1.5993    0.1084 N   0  0  0  0  0  0  0  0  0  0  0  0
  1  2  1  0
  2  3  1  0
  3  4  1  0
  4  5  1  0
  5  6  1  0
  6  7  1  0
  7  8  1  0
  8  9  1  0
M  END
$$$$
