O=C(SCCC)N(CCCC)CC
     RDKit          3D

 13 12  0  0  0  0  0  0  0  0999 V2000
    1.2993    1.8000   -1.2011 O   0  0  0  0  0  0  0  0  0  0  0  0
    0.6293    0.8649   -0.6867 C   0  0  0  0  0  0  0  0  0  0  0  0
    1.0129   -0.8236   -1.1831 S   0  0  0  0  0  0  0  0  0  0  0  0
    2.2284   -1.1229    0.1536 C   0  0  0  0  0  0  0  0  0  0  0  0
    3.6477   -1.2589   -0.4043 C   0  0  0  0  0  0  0  0  0  0  0  0
    4.1980    0.0682   -0.9230 C   0  0  0  0  0  0  0  0  0  0  0  0
   -0.4074    1.1591    0.2784 N   0  0  0  0  0  0  0  0  0  0  0  0
   -1.1926    0.0771    0.8938 C   0  0  0  0  0  0  0  0  0  0  0  0
   -2.3003   -0.3926   -0.0601 C   0  0  0  0  0  0  0  0  0  0  0  0
   -3.1298   -1.5465    0.5227 C   0  0  0  0  0  0  0  0  0  0  0  0
   -2.3714   -2.8741    0.5231 C   0  0  0  0  0  0  0  0  0  0  0  0
   -0.6269    2.5497    0.7076 C   0  0  0  0  0  0  0  0  0  0  0  0
   -1.3989    3.3278   -0.3539 C   0  0  0  0  0  0  0  0  0  0  0  0
  1  2  2  0
  2  7  1  0
  2  3  1  0
  3  4  1  0
  4  5  1  0
  5  6  1  0
  7 12  1  0
  7  8  1  0
  8  9  1  0
  9 10  1  0
 10 11  1  0
 12 13  1  0
M  END
$$$$
