CCCCCCCCC(O)=O
     RDKit          3D

 11 10  0  0  0  0  0  0  0  0999 V2000
   -4.7754    1.0870   -0.2654 C   0  0  0  0  0  0  0  0  0  0  0  0
   -3.7281   -0.0215   -0.2130 C   0  0  0  0  0  0  0  0  0  0  0  0
   -2.3120    0.5471   -0.3582 C   0  0  0  0  0  0  0  0  0  0  0  0
   -1.2626   -0.5696   -0.3048 C   0  0  0  0  0  0  0  0  0  0  0  0
    0.1545   -0.0020   -0.4512 C   0  0  0  0  0  0  0  0  0  0  0  0
    1.2043   -1.1216   -0.3861 C   0  0  0  0  0  0  0  0  0  0  0  0
    2.6292   -0.6155   -0.6623 C   0  0  0  0  0  0  0  0  0  0  0  0
    3.1901    0.2286    0.4909 C   0  0  0  0  0  0  0  0  0  0  0  0
    4.6200    0.6015    0.2313 C   0  0  0  0  0  0  0  0  0  0  0  0
    5.6186   -0.3685    0.2304 O   0  0  0  0  0  0  0  0  0  0  0  0
    4.9279    1.8048    0.0243 O   0  0  0  0  0  0  0  0  0  0  0  0
  1  2  1  0
  2  3  1  0
  3  4  1  0
  4  5  1  0
  5  6  1  0
  6  7  1  0
  7  8  1  0
  8  9  1  0
  9 10  1  0
  9 11  2  0
M  END
$$$$
