O=C(O)CCCCCCCCC=C
     RDKit          3D

 13 12  0  0  0  0  0  0  0  0999 V2000
   -4.2446    1.4707    2.2011 O   0  0  0  0  0  0  0  0  0  0  0  0
   -4.5257    0.7074    1.2401 C   0  0  0  0  0  0  0  0  0  0  0  0
   -5.5674    1.0434    0.3805 O   0  0  0  0  0  0  0  0  0  0  0  0
   -3.7122   -0.5291    1.0042 C   0  0  0  0  0  0  0  0  0  0  0  0
   -2.6224   -0.2625   -0.0383 C   0  0  0  0  0  0  0  0  0  0  0  0
   -1.7700   -1.5175   -0.2767 C   0  0  0  0  0  0  0  0  0  0  0  0
   -0.7853   -1.3614   -1.4500 C   0  0  0  0  0  0  0  0  0  0  0  0
    0.2514   -0.2342   -1.2889 C   0  0  0  0  0  0  0  0  0  0  0  0
    1.1826   -0.4449   -0.0827 C   0  0  0  0  0  0  0  0  0  0  0  0
    2.2736    0.6338    0.0166 C   0  0  0  0  0  0  0  0  0  0  0  0
    3.4014    0.4319   -1.0077 C   0  0  0  0  0  0  0  0  0  0  0  0
    4.4883    1.4573   -0.8309 C   0  0  0  0  0  0  0  0  0  0  0  0
    5.3089    1.4402    0.2237 C   0  0  0  0  0  0  0  0  0  0  0  0
  1  2  2  0
  2  4  1  0
  2  3  1  0
  4  5  1  0
  5  6  1  0
  6  7  1  0
  7  8  1  0
  8  9  1  0
  9 10  1  0
 10 11  1  0
 11 12  1  0
 12 13  2  0
M  END
$$$$
