O=C(O)CCCCCCCCCC
     RDKit          3D

 13 12  0  0  0  0  0  0  0  0999 V2000
    6.2232    0.9229    1.2448 O   0  0  0  0  0  0  0  0  0  0  0  0
    5.6176    0.0951    0.5127 C   0  0  0  0  0  0  0  0  0  0  0  0
    6.1396   -1.1810    0.3262 O   0  0  0  0  0  0  0  0  0  0  0  0
    4.3131    0.4659   -0.1188 C   0  0  0  0  0  0  0  0  0  0  0  0
    3.1455    0.0617    0.7908 C   0  0  0  0  0  0  0  0  0  0  0  0
    1.7840    0.5315    0.2532 C   0  0  0  0  0  0  0  0  0  0  0  0
    1.3123   -0.2913   -0.9585 C   0  0  0  0  0  0  0  0  0  0  0  0
   -0.0457    0.1826   -1.5016 C   0  0  0  0  0  0  0  0  0  0  0  0
   -1.2206   -0.2188   -0.5965 C   0  0  0  0  0  0  0  0  0  0  0  0
   -2.5625    0.1687   -1.2363 C   0  0  0  0  0  0  0  0  0  0  0  0
   -3.7706   -0.3192   -0.4211 C   0  0  0  0  0  0  0  0  0  0  0  0
   -3.9554    0.4618    0.8883 C   0  0  0  0  0  0  0  0  0  0  0  0
   -5.2389    0.0440    1.6004 C   0  0  0  0  0  0  0  0  0  0  0  0
  1  2  2  0
  2  4  1  0
  2  3  1  0
  4  5  1  0
  5  6  1  0
  6  7  1  0
  7  8  1  0
  8  9  1  0
  9 10  1  0
 10 11  1  0
 11 12  1  0
 12 13  1  0
M  END
$$$$
