CCCCCCCCCCO
     RDKit          3D

 11 10  0  0  0  0  0  0  0  0999 V2000
   -3.9426    0.0422   -1.0361 C   0  0  0  0  0  0  0  0  0  0  0  0
   -4.1994    0.1492    0.4657 C   0  0  0  0  0  0  0  0  0  0  0  0
   -2.9092    0.3327    1.2819 C   0  0  0  0  0  0  0  0  0  0  0  0
   -1.9892   -0.9090    1.2657 C   0  0  0  0  0  0  0  0  0  0  0  0
   -0.7993   -0.7697    0.2993 C   0  0  0  0  0  0  0  0  0  0  0  0
    0.3351    0.0809    0.8987 C   0  0  0  0  0  0  0  0  0  0  0  0
    1.4529    0.3786   -0.1139 C   0  0  0  0  0  0  0  0  0  0  0  0
    2.3161   -0.8567   -0.4224 C   0  0  0  0  0  0  0  0  0  0  0  0
    3.4207   -0.5660   -1.4532 C   0  0  0  0  0  0  0  0  0  0  0  0
    4.5274    0.3635   -0.9377 C   0  0  0  0  0  0  0  0  0  0  0  0
    5.1669   -0.1923    0.1803 O   0  0  0  0  0  0  0  0  0  0  0  0
  1  2  1  0
  2  3  1  0
  3  4  1  0
  4  5  1  0
  5  6  1  0
  6  7  1  0
  7  8  1  0
  8  9  1  0
  9 10  1  0
 10 11  1  0
M  END
$$$$
