Oc(cc2)cc1c2CCCC1
     RDKit          3D

 11 12  0  0  0  0  0  0  0  0999 V2000
    3.9393   -0.7772    0.1136 O   0  0  0  0  0  0  0  0  0  0  0  0
    2.6522   -0.2566    0.0009 C   0  0  0  0  0  0  0  0  0  0  0  0
    2.4687    1.1304   -0.0230 C   0  0  0  0  0  0  0  0  0  0  0  0
    1.1841    1.6695   -0.1416 C   0  0  0  0  0  0  0  0  0  0  0  0
    1.5425   -1.1089   -0.0922 C   0  0  0  0  0  0  0  0  0  0  0  0
    0.2510   -0.5716   -0.1980 C   0  0  0  0  0  0  0  0  0  0  0  0
    0.0704    0.8206   -0.2198 C   0  0  0  0  0  0  0  0  0  0  0  0
   -1.3187    1.3675   -0.4118 C   0  0  0  0  0  0  0  0  0  0  0  0
   -2.3618    0.5946    0.4226 C   0  0  0  0  0  0  0  0  0  0  0  0
   -2.0853   -0.9242    0.5811 C   0  0  0  0  0  0  0  0  0  0  0  0
   -0.9598   -1.4539   -0.3194 C   0  0  0  0  0  0  0  0  0  0  0  0
  1  2  1  0
  2  3  2  0
  2  5  1  0
  3  4  1  0
  4  7  2  0
  5  6  2  0
  6 11  1  0
  6  7  1  0
  7  8  1  0
  8  9  1  0
  9 10  1  0
 10 11  1  0
M  END
$$$$
