Clc1nc(ncnc2)c2nc1
     RDKit          3D

 11 12  0  0  0  0  0  0  0  0999 V2000
    3.7693   -1.1690   -0.8657 Cl  0  0  0  0  0  0  0  0  0  0  0  0
    2.2157   -0.5030   -0.4054 C   0  0  0  0  0  0  0  0  0  0  0  0
    1.0725   -1.1710   -0.7175 N   0  0  0  0  0  0  0  0  0  0  0  0
   -0.1429   -0.6734   -0.3706 C   0  0  0  0  0  0  0  0  0  0  0  0
   -1.2809   -1.3441   -0.6845 N   0  0  0  0  0  0  0  0  0  0  0  0
   -2.4972   -0.8444   -0.3363 C   0  0  0  0  0  0  0  0  0  0  0  0
   -2.5868    0.3374    0.3328 N   0  0  0  0  0  0  0  0  0  0  0  0
   -1.4730    1.0417    0.6670 C   0  0  0  0  0  0  0  0  0  0  0  0
   -0.2169    0.5472    0.3195 C   0  0  0  0  0  0  0  0  0  0  0  0
    0.9246    1.2148    0.6316 N   0  0  0  0  0  0  0  0  0  0  0  0
    2.1403    0.7143    0.2830 C   0  0  0  0  0  0  0  0  0  0  0  0
  1  2  1  0
  2 11  2  0
  2  3  1  0
  3  4  2  0
  4  9  1  0
  4  5  1  0
  5  6  2  0
  6  7  1  0
  7  8  2  0
  8  9  1  0
  9 10  2  0
 10 11  1  0
M  END
$$$$
