CCc1c(cccc2)c2ccc1
     RDKit          3D

 12 13  0  0  0  0  0  0  0  0999 V2000
   -1.7215   -0.8632    2.2529 C   0  0  0  0  0  0  0  0  0  0  0  0
   -1.7964    0.3920    1.3864 C   0  0  0  0  0  0  0  0  0  0  0  0
   -0.4613    0.6877    0.7342 C   0  0  0  0  0  0  0  0  0  0  0  0
    0.0083   -0.0099   -0.4144 C   0  0  0  0  0  0  0  0  0  0  0  0
   -0.7484   -1.0220   -1.0458 C   0  0  0  0  0  0  0  0  0  0  0  0
   -0.2526   -1.6849   -2.1712 C   0  0  0  0  0  0  0  0  0  0  0  0
    0.9981   -1.3537   -2.6899 C   0  0  0  0  0  0  0  0  0  0  0  0
    1.7631   -0.3548   -2.0882 C   0  0  0  0  0  0  0  0  0  0  0  0
    1.2810    0.3222   -0.9567 C   0  0  0  0  0  0  0  0  0  0  0  0
    2.0563    1.3276   -0.3643 C   0  0  0  0  0  0  0  0  0  0  0  0
    1.5867    2.0082    0.7558 C   0  0  0  0  0  0  0  0  0  0  0  0
    0.3425    1.6939    1.2998 C   0  0  0  0  0  0  0  0  0  0  0  0
  1  2  1  0
  2  3  1  0
  3 12  2  0
  3  4  1  0
  4  5  2  0
  4  9  1  0
  5  6  1  0
  6  7  2  0
  7  8  1  0
  8  9  2  0
  9 10  1  0
 10 11  2  0
 11 12  1  0
M  END
$$$$
