O=C(SCC)N(C1CCCCC1)CC
     RDKit          3D

 14 14  0  0  0  0  0  0  0  0999 V2000
    1.5575    0.0312    2.3833 O   0  0  0  0  0  0  0  0  0  0  0  0
    1.5373   -0.6495    1.3229 C   0  0  0  0  0  0  0  0  0  0  0  0
    3.1077   -1.1497    0.6058 S   0  0  0  0  0  0  0  0  0  0  0  0
    3.3382    0.4289   -0.2778 C   0  0  0  0  0  0  0  0  0  0  0  0
    4.5738    0.3534   -1.1609 C   0  0  0  0  0  0  0  0  0  0  0  0
    0.2769   -0.9939    0.7040 N   0  0  0  0  0  0  0  0  0  0  0  0
   -0.8721   -0.0789    0.9137 C   0  0  0  0  0  0  0  0  0  0  0  0
   -2.2483   -0.7226    0.6328 C   0  0  0  0  0  0  0  0  0  0  0  0
   -3.4062    0.2310    0.9950 C   0  0  0  0  0  0  0  0  0  0  0  0
   -3.0596    1.7219    0.8074 C   0  0  0  0  0  0  0  0  0  0  0  0
   -1.9960    1.9259   -0.2747 C   0  0  0  0  0  0  0  0  0  0  0  0
   -0.6757    1.2198    0.0896 C   0  0  0  0  0  0  0  0  0  0  0  0
    0.2044   -2.1783   -0.1750 C   0  0  0  0  0  0  0  0  0  0  0  0
    0.3329   -1.7917   -1.6460 C   0  0  0  0  0  0  0  0  0  0  0  0
  1  2  2  0
  2  6  1  0
  2  3  1  0
  3  4  1  0
  4  5  1  0
  6 13  1  0
  6  7  1  0
  7  8  1  0
  7 12  1  0
  8  9  1  0
  9 10  1  0
 10 11  1  0
 11 12  1  0
 13 14  1  0
M  END
$$$$
