O=C(NC)Oc(cccc1)c1OC(C)C
     RDKit          3D

 15 15  0  0  0  0  0  0  0  0999 V2000
    2.9722    0.1124    0.4747 O   0  0  0  0  0  0  0  0  0  0  0  0
    2.0809    0.6420   -0.2445 C   0  0  0  0  0  0  0  0  0  0  0  0
    2.3800    1.8103   -1.0132 N   0  0  0  0  0  0  0  0  0  0  0  0
    3.7107    2.4044   -1.0285 C   0  0  0  0  0  0  0  0  0  0  0  0
    0.7756    0.1346   -0.2597 O   0  0  0  0  0  0  0  0  0  0  0  0
    0.3834   -1.1218    0.2222 C   0  0  0  0  0  0  0  0  0  0  0  0
    1.2543   -2.2259    0.1256 C   0  0  0  0  0  0  0  0  0  0  0  0
    0.8771   -3.4759    0.6170 C   0  0  0  0  0  0  0  0  0  0  0  0
   -0.3748   -3.6458    1.2028 C   0  0  0  0  0  0  0  0  0  0  0  0
   -1.2590   -2.5698    1.2835 C   0  0  0  0  0  0  0  0  0  0  0  0
   -0.9079   -1.3074    0.7849 C   0  0  0  0  0  0  0  0  0  0  0  0
   -1.8799   -0.2945    0.9053 O   0  0  0  0  0  0  0  0  0  0  0  0
   -1.9129    0.9751    0.2483 C   0  0  0  0  0  0  0  0  0  0  0  0
   -3.0465    1.8016    0.8536 C   0  0  0  0  0  0  0  0  0  0  0  0
   -2.1442    0.7948   -1.2568 C   0  0  0  0  0  0  0  0  0  0  0  0
  1  2  2  0
  2  3  1  0
  2  5  1  0
  3  4  1  0
  5  6  1  0
  6  7  2  0
  6 11  1  0
  7  8  1  0
  8  9  2  0
  9 10  1  0
 10 11  2  0
 11 12  1  0
 12 13  1  0
 13 15  1  0
 13 14  1  0
M  END
$$$$
