CNc(cccc1)c1C(O)=O
     RDKit          3D

 11 11  0  0  0  0  0  0  0  0999 V2000
    2.5731   -1.0349   -0.3031 C   0  0  0  0  0  0  0  0  0  0  0  0
    1.1188   -1.0933   -0.4109 N   0  0  0  0  0  0  0  0  0  0  0  0
    0.2639    0.0478   -0.1938 C   0  0  0  0  0  0  0  0  0  0  0  0
    0.7623    1.3515   -0.3928 C   0  0  0  0  0  0  0  0  0  0  0  0
   -0.0770    2.4610   -0.2852 C   0  0  0  0  0  0  0  0  0  0  0  0
   -1.4254    2.2909    0.0177 C   0  0  0  0  0  0  0  0  0  0  0  0
   -1.9370    1.0115    0.2340 C   0  0  0  0  0  0  0  0  0  0  0  0
   -1.1042   -0.1199    0.1511 C   0  0  0  0  0  0  0  0  0  0  0  0
   -1.6798   -1.4435    0.4826 C   0  0  0  0  0  0  0  0  0  0  0  0
   -0.9084   -2.4121    1.1190 O   0  0  0  0  0  0  0  0  0  0  0  0
   -2.8923   -1.6848    0.2346 O   0  0  0  0  0  0  0  0  0  0  0  0
  1  2  1  0
  2  3  1  0
  3  4  2  0
  3  8  1  0
  4  5  1  0
  5  6  2  0
  6  7  1  0
  7  8  2  0
  8  9  1  0
  9 10  1  0
  9 11  2  0
M  END
$$$$
