c1(ccnc2)c2cccc1
     RDKit          3D

 10 11  0  0  0  0  0  0  0  0999 V2000
    0.2147    0.6325   -0.0159 C   0  0  0  0  0  0  0  0  0  0  0  0
    1.4469    1.2878   -0.1387 C   0  0  0  0  0  0  0  0  0  0  0  0
    2.6144    0.5322   -0.2696 C   0  0  0  0  0  0  0  0  0  0  0  0
    2.5541   -0.8262   -0.2776 N   0  0  0  0  0  0  0  0  0  0  0  0
    1.3750   -1.4934   -0.1605 C   0  0  0  0  0  0  0  0  0  0  0  0
    0.1754   -0.7810   -0.0267 C   0  0  0  0  0  0  0  0  0  0  0  0
   -1.0539   -1.4460    0.0957 C   0  0  0  0  0  0  0  0  0  0  0  0
   -2.2360   -0.7110    0.2279 C   0  0  0  0  0  0  0  0  0  0  0  0
   -2.1984    0.6866    0.2387 C   0  0  0  0  0  0  0  0  0  0  0  0
   -0.9785    1.3593    0.1174 C   0  0  0  0  0  0  0  0  0  0  0  0
  1  6  1  0
  1  2  2  0
  1 10  1  0
  2  3  1  0
  3  4  2  0
  4  5  1  0
  5  6  2  0
  6  7  1  0
  7  8  2  0
  8  9  1  0
  9 10  2  0
M  END
$$$$
