c1(c2nc(cccc4)c4cc2)nc(cccc3)c3cc1
     RDKit          3D

 20 23  0  0  0  0  0  0  0  0999 V2000
   -0.7579   -0.6232   -0.3050 C   0  0  0  0  0  0  0  0  0  0  0  0
    0.7234   -0.6462   -0.3527 C   0  0  0  0  0  0  0  0  0  0  0  0
    1.4086    0.3837    0.2195 N   0  0  0  0  0  0  0  0  0  0  0  0
    2.7667    0.4476    0.2135 C   0  0  0  0  0  0  0  0  0  0  0  0
    3.4230    1.5244    0.8208 C   0  0  0  0  0  0  0  0  0  0  0  0
    4.8202    1.5859    0.8130 C   0  0  0  0  0  0  0  0  0  0  0  0
    5.5654    0.5738    0.1989 C   0  0  0  0  0  0  0  0  0  0  0  0
    4.9178   -0.5056   -0.4114 C   0  0  0  0  0  0  0  0  0  0  0  0
    3.5164   -0.5744   -0.4069 C   0  0  0  0  0  0  0  0  0  0  0  0
    2.8376   -1.6367   -1.0130 C   0  0  0  0  0  0  0  0  0  0  0  0
    1.4417   -1.6749   -0.9923 C   0  0  0  0  0  0  0  0  0  0  0  0
   -1.3828    0.5657   -0.0730 N   0  0  0  0  0  0  0  0  0  0  0  0
   -2.7361    0.6761   -0.0039 C   0  0  0  0  0  0  0  0  0  0  0  0
   -3.3292    1.9220    0.2306 C   0  0  0  0  0  0  0  0  0  0  0  0
   -4.7217    2.0313    0.3003 C   0  0  0  0  0  0  0  0  0  0  0  0
   -5.5253    0.8980    0.1369 C   0  0  0  0  0  0  0  0  0  0  0  0
   -4.9411   -0.3513   -0.0967 C   0  0  0  0  0  0  0  0  0  0  0  0
   -3.5448   -0.4686   -0.1687 C   0  0  0  0  0  0  0  0  0  0  0  0
   -2.9285   -1.7037   -0.3952 C   0  0  0  0  0  0  0  0  0  0  0  0
   -1.5359   -1.7868   -0.4598 C   0  0  0  0  0  0  0  0  0  0  0  0
  1 12  2  0
  1  2  1  0
  1 20  1  0
  2 11  1  0
  2  3  2  0
  3  4  1  0
  4  9  2  0
  4  5  1  0
  5  6  2  0
  6  7  1  0
  7  8  2  0
  8  9  1  0
  9 10  1  0
 10 11  2  0
 12 13  1  0
 13 14  2  0
 13 18  1  0
 14 15  1  0
 15 16  2  0
 16 17  1  0
 17 18  2  0
 18 19  1  0
 19 20  2  0
M  END
$$$$
