Oc1c(cccc1)C(OC)=O
     RDKit          3D

 11 11  0  0  0  0  0  0  0  0999 V2000
    0.2855   -1.9898   -0.1468 O   0  0  0  0  0  0  0  0  0  0  0  0
   -0.6579   -0.9706   -0.0171 C   0  0  0  0  0  0  0  0  0  0  0  0
   -0.2572    0.3856    0.0423 C   0  0  0  0  0  0  0  0  0  0  0  0
   -1.2480    1.3798    0.1736 C   0  0  0  0  0  0  0  0  0  0  0  0
   -2.5999    1.0354    0.2439 C   0  0  0  0  0  0  0  0  0  0  0  0
   -2.9852   -0.3030    0.1846 C   0  0  0  0  0  0  0  0  0  0  0  0
   -2.0199   -1.3019    0.0548 C   0  0  0  0  0  0  0  0  0  0  0  0
    1.1734    0.7825   -0.0301 C   0  0  0  0  0  0  0  0  0  0  0  0
    2.1741   -0.1864   -0.1605 O   0  0  0  0  0  0  0  0  0  0  0  0
    3.5567    0.1403   -0.2341 C   0  0  0  0  0  0  0  0  0  0  0  0
    1.4908    2.0032    0.0263 O   0  0  0  0  0  0  0  0  0  0  0  0
  1  2  1  0
  2  7  2  0
  2  3  1  0
  3  4  2  0
  3  8  1  0
  4  5  1  0
  5  6  2  0
  6  7  1  0
  8 11  2  0
  8  9  1  0
  9 10  1  0
M  END
$$$$
