O=C(c1ccc(O)cc1)OCC
     RDKit          3D

 12 12  0  0  0  0  0  0  0  0999 V2000
    0.9100   -0.9182   -2.0481 O   0  0  0  0  0  0  0  0  0  0  0  0
    0.6971   -0.4418   -0.8987 C   0  0  0  0  0  0  0  0  0  0  0  0
   -0.6742   -0.0605   -0.4947 C   0  0  0  0  0  0  0  0  0  0  0  0
   -1.7558   -0.2222   -1.3804 C   0  0  0  0  0  0  0  0  0  0  0  0
   -3.0492    0.1402   -0.9920 C   0  0  0  0  0  0  0  0  0  0  0  0
   -3.2794    0.6683    0.2846 C   0  0  0  0  0  0  0  0  0  0  0  0
   -4.5638    1.0327    0.6821 O   0  0  0  0  0  0  0  0  0  0  0  0
   -2.2101    0.8318    1.1698 C   0  0  0  0  0  0  0  0  0  0  0  0
   -0.9151    0.4705    0.7851 C   0  0  0  0  0  0  0  0  0  0  0  0
    1.7590   -0.2733   -0.0035 O   0  0  0  0  0  0  0  0  0  0  0  0
    3.1015   -0.6191   -0.3277 C   0  0  0  0  0  0  0  0  0  0  0  0
    4.0055   -0.3139    0.8557 C   0  0  0  0  0  0  0  0  0  0  0  0
  1  2  2  0
  2  3  1  0
  2 10  1  0
  3  9  2  0
  3  4  1  0
  4  5  2  0
  5  6  1  0
  6  8  2  0
  6  7  1  0
  8  9  1  0
 10 11  1  0
 11 12  1  0
M  END
$$$$
