Oc1c(O)cccc1
     RDKit          3D

  8  8  0  0  0  0  0  0  0  0999 V2000
    2.0478    1.1720    0.3575 O   0  0  0  0  0  0  0  0  0  0  0  0
    0.7916    0.5828    0.2008 C   0  0  0  0  0  0  0  0  0  0  0  0
    0.6117   -0.6900   -0.3955 C   0  0  0  0  0  0  0  0  0  0  0  0
    1.6761   -1.4565   -0.8740 O   0  0  0  0  0  0  0  0  0  0  0  0
   -0.6814   -1.2156   -0.5176 C   0  0  0  0  0  0  0  0  0  0  0  0
   -1.7872   -0.4968   -0.0579 C   0  0  0  0  0  0  0  0  0  0  0  0
   -1.6101    0.7564    0.5292 C   0  0  0  0  0  0  0  0  0  0  0  0
   -0.3268    1.2926    0.6575 C   0  0  0  0  0  0  0  0  0  0  0  0
  1  2  1  0
  2  8  2  0
  2  3  1  0
  3  4  1  0
  3  5  2  0
  5  6  1  0
  6  7  2  0
  7  8  1  0
M  END
$$$$
