O=C(c(cc1)ccc1OC)OC
     RDKit          3D

 12 12  0  0  0  0  0  0  0  0999 V2000
    2.8948   -1.5652    0.5092 O   0  0  0  0  0  0  0  0  0  0  0  0
    2.2852   -0.5420    0.0911 C   0  0  0  0  0  0  0  0  0  0  0  0
    0.8084   -0.4771    0.1601 C   0  0  0  0  0  0  0  0  0  0  0  0
    0.0664   -1.5478    0.6894 C   0  0  0  0  0  0  0  0  0  0  0  0
   -1.3284   -1.4805    0.7519 C   0  0  0  0  0  0  0  0  0  0  0  0
    0.1254    0.6598   -0.3041 C   0  0  0  0  0  0  0  0  0  0  0  0
   -1.2699    0.7253   -0.2407 C   0  0  0  0  0  0  0  0  0  0  0  0
   -2.0083   -0.3487    0.2898 C   0  0  0  0  0  0  0  0  0  0  0  0
   -3.4084   -0.3308    0.3748 O   0  0  0  0  0  0  0  0  0  0  0  0
   -4.2260    0.7522   -0.0563 C   0  0  0  0  0  0  0  0  0  0  0  0
    3.0062    0.5338   -0.4390 O   0  0  0  0  0  0  0  0  0  0  0  0
    4.4255    0.5348   -0.5338 C   0  0  0  0  0  0  0  0  0  0  0  0
  1  2  2  0
  2  3  1  0
  2 11  1  0
  3  4  2  0
  3  6  1  0
  4  5  1  0
  5  8  2  0
  6  7  2  0
  7  8  1  0
  8  9  1  0
  9 10  1  0
 11 12  1  0
M  END
$$$$
