Oc1c(OC)cc(C(O)=O)cc1
     RDKit          3D

 12 12  0  0  0  0  0  0  0  0999 V2000
   -1.7404    2.5018   -0.6368 O   0  0  0  0  0  0  0  0  0  0  0  0
   -0.6737    1.6681   -0.3009 C   0  0  0  0  0  0  0  0  0  0  0  0
   -0.8809    0.3128    0.0117 C   0  0  0  0  0  0  0  0  0  0  0  0
   -2.1905   -0.1937   -0.0128 O   0  0  0  0  0  0  0  0  0  0  0  0
   -2.5426   -1.5424    0.2783 C   0  0  0  0  0  0  0  0  0  0  0  0
    0.2264   -0.4952    0.3428 C   0  0  0  0  0  0  0  0  0  0  0  0
    1.5280    0.0386    0.3563 C   0  0  0  0  0  0  0  0  0  0  0  0
    2.6989   -0.8025    0.7057 C   0  0  0  0  0  0  0  0  0  0  0  0
    2.6794   -2.1885    0.5530 O   0  0  0  0  0  0  0  0  0  0  0  0
    3.7506   -0.2607    1.1389 O   0  0  0  0  0  0  0  0  0  0  0  0
    1.7089    1.3982    0.0536 C   0  0  0  0  0  0  0  0  0  0  0  0
    0.6169    2.2021   -0.2756 C   0  0  0  0  0  0  0  0  0  0  0  0
  1  2  1  0
  2 12  2  0
  2  3  1  0
  3  6  2  0
  3  4  1  0
  4  5  1  0
  6  7  1  0
  7 11  2  0
  7  8  1  0
  8  9  1  0
  8 10  2  0
 11 12  1  0
M  END
$$$$
