CCN(CC)CC
     RDKit          3D

  7  6  0  0  0  0  0  0  0  0999 V2000
    2.2193   -1.0443   -0.1334 C   0  0  0  0  0  0  0  0  0  0  0  0
    1.1394   -0.4030    0.7337 C   0  0  0  0  0  0  0  0  0  0  0  0
   -0.0244   -0.0169   -0.0975 N   0  0  0  0  0  0  0  0  0  0  0  0
   -0.9717   -1.1458   -0.2469 C   0  0  0  0  0  0  0  0  0  0  0  0
   -1.6812   -1.0661   -1.5958 C   0  0  0  0  0  0  0  0  0  0  0  0
   -0.7018    1.1789    0.4551 C   0  0  0  0  0  0  0  0  0  0  0  0
   -0.0463    2.4509   -0.0756 C   0  0  0  0  0  0  0  0  0  0  0  0
  1  2  1  0
  2  3  1  0
  3  4  1  0
  3  6  1  0
  4  5  1  0
  6  7  1  0
M  END
$$$$
