CCNc1nc(NCC)nc(Cl)n1
     RDKit          3D

 13 13  0  0  0  0  0  0  0  0999 V2000
    4.0115    0.9938   -0.1368 C   0  0  0  0  0  0  0  0  0  0  0  0
    3.6308   -0.1044   -1.1242 C   0  0  0  0  0  0  0  0  0  0  0  0
    2.2447    0.0513   -1.5615 N   0  0  0  0  0  0  0  0  0  0  0  0
    1.1240   -0.2679   -0.7269 C   0  0  0  0  0  0  0  0  0  0  0  0
   -0.1372   -0.0607   -1.1860 N   0  0  0  0  0  0  0  0  0  0  0  0
   -1.2098   -0.3615   -0.4092 C   0  0  0  0  0  0  0  0  0  0  0  0
   -2.5341   -0.1385   -0.9102 N   0  0  0  0  0  0  0  0  0  0  0  0
   -3.7362   -0.4172   -0.1268 C   0  0  0  0  0  0  0  0  0  0  0  0
   -3.9490    0.6590    0.9324 C   0  0  0  0  0  0  0  0  0  0  0  0
   -1.0157   -0.8784    0.8327 N   0  0  0  0  0  0  0  0  0  0  0  0
    0.2417   -1.0892    1.2944 C   0  0  0  0  0  0  0  0  0  0  0  0
    0.4861   -1.7532    2.8947 Cl  0  0  0  0  0  0  0  0  0  0  0  0
    1.3095   -0.7857    0.5159 N   0  0  0  0  0  0  0  0  0  0  0  0
  1  2  1  0
  2  3  1  0
  3  4  1  0
  4  5  2  0
  4 13  1  0
  5  6  1  0
  6  7  1  0
  6 10  2  0
  7  8  1  0
  8  9  1  0
 10 11  1  0
 11 13  2  0
 11 12  1  0
M  END
$$$$
