O=C(O)COc1ccc(Cl)cc1
     RDKit          3D

 12 12  0  0  0  0  0  0  0  0999 V2000
    2.2033    1.2454   -2.1424 O   0  0  0  0  0  0  0  0  0  0  0  0
    2.4731    0.5261   -1.1449 C   0  0  0  0  0  0  0  0  0  0  0  0
    3.2637    1.0438   -0.1228 O   0  0  0  0  0  0  0  0  0  0  0  0
    1.9671   -0.8842   -1.0848 C   0  0  0  0  0  0  0  0  0  0  0  0
    0.5650   -0.9305   -1.3497 O   0  0  0  0  0  0  0  0  0  0  0  0
   -0.4385   -0.4464   -0.4944 C   0  0  0  0  0  0  0  0  0  0  0  0
   -0.1610    0.0747    0.7854 C   0  0  0  0  0  0  0  0  0  0  0  0
   -1.2004    0.5434    1.5953 C   0  0  0  0  0  0  0  0  0  0  0  0
   -2.5217    0.4956    1.1403 C   0  0  0  0  0  0  0  0  0  0  0  0
   -3.8234    1.0840    2.1584 Cl  0  0  0  0  0  0  0  0  0  0  0  0
   -2.8036   -0.0233   -0.1269 C   0  0  0  0  0  0  0  0  0  0  0  0
   -1.7663   -0.4924   -0.9385 C   0  0  0  0  0  0  0  0  0  0  0  0
  1  2  2  0
  2  4  1  0
  2  3  1  0
  4  5  1  0
  5  6  1  0
  6 12  2  0
  6  7  1  0
  7  8  2  0
  8  9  1  0
  9 11  2  0
  9 10  1  0
 11 12  1  0
M  END
$$$$
