O=C(O)COc1ccccc1
     RDKit          3D

 11 11  0  0  0  0  0  0  0  0999 V2000
   -3.6348    1.6403    1.4262 O   0  0  0  0  0  0  0  0  0  0  0  0
   -3.2497    0.8402    0.5336 C   0  0  0  0  0  0  0  0  0  0  0  0
   -4.1062   -0.1674    0.1006 O   0  0  0  0  0  0  0  0  0  0  0  0
   -1.8659    0.9481   -0.0197 C   0  0  0  0  0  0  0  0  0  0  0  0
   -1.0348   -0.0249    0.6059 O   0  0  0  0  0  0  0  0  0  0  0  0
    0.3253   -0.2094    0.3169 C   0  0  0  0  0  0  0  0  0  0  0  0
    1.0235   -1.2074    1.0093 C   0  0  0  0  0  0  0  0  0  0  0  0
    2.3807   -1.4293    0.7560 C   0  0  0  0  0  0  0  0  0  0  0  0
    3.0514   -0.6539   -0.1931 C   0  0  0  0  0  0  0  0  0  0  0  0
    2.3655    0.3443   -0.8899 C   0  0  0  0  0  0  0  0  0  0  0  0
    1.0079    0.5693   -0.6393 C   0  0  0  0  0  0  0  0  0  0  0  0
  1  2  2  0
  2  4  1  0
  2  3  1  0
  4  5  1  0
  5  6  1  0
  6 11  2  0
  6  7  1  0
  7  8  2  0
  8  9  1  0
  9 10  2  0
 10 11  1  0
M  END
$$$$
