C1CCCN1
     RDKit          3D

  5  5  0  0  0  0  0  0  0  0999 V2000
    1.2598    0.0895    0.2950 C   0  0  0  0  0  0  0  0  0  0  0  0
    0.3557   -1.1000    0.0482 C   0  0  0  0  0  0  0  0  0  0  0  0
   -1.0345   -0.5301    0.1685 C   0  0  0  0  0  0  0  0  0  0  0  0
   -0.8814    0.9365   -0.2052 C   0  0  0  0  0  0  0  0  0  0  0  0
    0.5390    1.2922   -0.1218 N   0  0  0  0  0  0  0  0  0  0  0  0
  1  2  1  0
  1  5  1  0
  2  3  1  0
  3  4  1  0
  4  5  1  0
M  END
$$$$
