CCCC=O
     RDKit          3D

  5  4  0  0  0  0  0  0  0  0999 V2000
   -1.4551   -0.2515    0.4632 C   0  0  0  0  0  0  0  0  0  0  0  0
   -0.5058   -0.0355   -0.7150 C   0  0  0  0  0  0  0  0  0  0  0  0
    0.8058    0.6381   -0.2892 C   0  0  0  0  0  0  0  0  0  0  0  0
    1.6384   -0.2515    0.5873 C   0  0  0  0  0  0  0  0  0  0  0  0
    2.0818   -1.3049    0.1582 O   0  0  0  0  0  0  0  0  0  0  0  0
  1  2  1  0
  2  3  1  0
  3  4  1  0
  4  5  2  0
M  END
$$$$
