CC(C)CCO
     RDKit          3D

  6  5  0  0  0  0  0  0  0  0999 V2000
   -1.7916    0.2151    1.0047 C   0  0  0  0  0  0  0  0  0  0  0  0
   -0.6680    0.3436   -0.0321 C   0  0  0  0  0  0  0  0  0  0  0  0
   -1.0857   -0.3449   -1.3404 C   0  0  0  0  0  0  0  0  0  0  0  0
    0.6444   -0.2427    0.5350 C   0  0  0  0  0  0  0  0  0  0  0  0
    1.8656    0.0750   -0.3380 C   0  0  0  0  0  0  0  0  0  0  0  0
    3.0373   -0.3656    0.2929 O   0  0  0  0  0  0  0  0  0  0  0  0
  1  2  1  0
  2  3  1  0
  2  4  1  0
  4  5  1  0
  5  6  1  0
M  END
$$$$
