CCCCCC(OCC)=O
     RDKit          3D

 10  9  0  0  0  0  0  0  0  0999 V2000
   -3.4525    0.6697   -0.5056 C   0  0  0  0  0  0  0  0  0  0  0  0
   -3.0338   -0.7977   -0.5893 C   0  0  0  0  0  0  0  0  0  0  0  0
   -2.2443   -1.2704    0.6444 C   0  0  0  0  0  0  0  0  0  0  0  0
   -0.9123   -0.5358    0.8815 C   0  0  0  0  0  0  0  0  0  0  0  0
    0.0981   -0.7500   -0.2540 C   0  0  0  0  0  0  0  0  0  0  0  0
    1.4240   -0.1465    0.0911 C   0  0  0  0  0  0  0  0  0  0  0  0
    1.9075    0.9295   -0.6622 O   0  0  0  0  0  0  0  0  0  0  0  0
    3.1778    1.5376   -0.4372 C   0  0  0  0  0  0  0  0  0  0  0  0
    4.2986    0.6615   -0.9846 C   0  0  0  0  0  0  0  0  0  0  0  0
    2.0942   -0.6131    1.0527 O   0  0  0  0  0  0  0  0  0  0  0  0
  1  2  1  0
  2  3  1  0
  3  4  1  0
  4  5  1  0
  5  6  1  0
  6 10  2  0
  6  7  1  0
  7  8  1  0
  8  9  1  0
M  END
$$$$
