Oc1ccc(C=O)cc1
     RDKit          3D

  9  9  0  0  0  0  0  0  0  0999 V2000
    2.9774   -0.2518    0.5743 O   0  0  0  0  0  0  0  0  0  0  0  0
    1.6137   -0.1563    0.3065 C   0  0  0  0  0  0  0  0  0  0  0  0
    0.9111   -1.2902   -0.1132 C   0  0  0  0  0  0  0  0  0  0  0  0
   -0.4582   -1.2092   -0.3856 C   0  0  0  0  0  0  0  0  0  0  0  0
   -1.1393    0.0098   -0.2404 C   0  0  0  0  0  0  0  0  0  0  0  0
   -2.5830    0.0769   -0.5320 C   0  0  0  0  0  0  0  0  0  0  0  0
   -3.2218    1.1559   -0.4110 O   0  0  0  0  0  0  0  0  0  0  0  0
   -0.4292    1.1477    0.1819 C   0  0  0  0  0  0  0  0  0  0  0  0
    0.9400    1.0636    0.4536 C   0  0  0  0  0  0  0  0  0  0  0  0
  1  2  1  0
  2  9  2  0
  2  3  1  0
  3  4  2  0
  4  5  1  0
  5  8  2  0
  5  6  1  0
  6  7  2  0
  8  9  1  0
M  END
$$$$
