O=Cc1ccc(OC)cc1
     RDKit          3D

 10 10  0  0  0  0  0  0  0  0999 V2000
   -4.0417    0.5258    0.2047 O   0  0  0  0  0  0  0  0  0  0  0  0
   -3.3251   -0.3991   -0.2623 C   0  0  0  0  0  0  0  0  0  0  0  0
   -1.8537   -0.3276   -0.2006 C   0  0  0  0  0  0  0  0  0  0  0  0
   -1.2033    0.7739    0.3807 C   0  0  0  0  0  0  0  0  0  0  0  0
    0.1933    0.8248    0.4303 C   0  0  0  0  0  0  0  0  0  0  0  0
    0.9618   -0.2279   -0.1020 C   0  0  0  0  0  0  0  0  0  0  0  0
    2.3644   -0.2238   -0.0764 O   0  0  0  0  0  0  0  0  0  0  0  0
    3.1550    0.8223    0.4786 C   0  0  0  0  0  0  0  0  0  0  0  0
    0.3102   -1.3232   -0.6801 C   0  0  0  0  0  0  0  0  0  0  0  0
   -1.0858   -1.3750   -0.7302 C   0  0  0  0  0  0  0  0  0  0  0  0
  1  2  2  0
  2  3  1  0
  3 10  2  0
  3  4  1  0
  4  5  2  0
  5  6  1  0
  6  9  2  0
  6  7  1  0
  7  8  1  0
  9 10  1  0
M  END
$$$$
