CC(CC(C)=O)=O
     RDKit          3D

  7  6  0  0  0  0  0  0  0  0999 V2000
    2.4175    0.1051    0.5284 C   0  0  0  0  0  0  0  0  0  0  0  0
    1.3439    0.0152   -0.5134 C   0  0  0  0  0  0  0  0  0  0  0  0
   -0.0430    0.5296   -0.2273 C   0  0  0  0  0  0  0  0  0  0  0  0
   -1.0762   -0.5693   -0.1802 C   0  0  0  0  0  0  0  0  0  0  0  0
   -2.5197   -0.2146    0.0060 C   0  0  0  0  0  0  0  0  0  0  0  0
   -0.7520   -1.7449   -0.2741 O   0  0  0  0  0  0  0  0  0  0  0  0
    1.5988   -0.4658   -1.6075 O   0  0  0  0  0  0  0  0  0  0  0  0
  1  2  1  0
  2  3  1  0
  2  7  2  0
  3  4  1  0
  4  5  1  0
  4  6  2  0
M  END
$$$$
