CCCCCCCC(O)=O
     RDKit          3D

 10  9  0  0  0  0  0  0  0  0999 V2000
   -4.1252   -0.5861    0.4203 C   0  0  0  0  0  0  0  0  0  0  0  0
   -3.0180   -0.2356   -0.5697 C   0  0  0  0  0  0  0  0  0  0  0  0
   -1.6963    0.0476    0.1540 C   0  0  0  0  0  0  0  0  0  0  0  0
   -0.5840    0.3894   -0.8489 C   0  0  0  0  0  0  0  0  0  0  0  0
    0.7250    0.8137   -0.1632 C   0  0  0  0  0  0  0  0  0  0  0  0
    1.4630   -0.3702    0.4857 C   0  0  0  0  0  0  0  0  0  0  0  0
    2.7819    0.0500    1.1526 C   0  0  0  0  0  0  0  0  0  0  0  0
    3.8791    0.2779    0.1560 C   0  0  0  0  0  0  0  0  0  0  0  0
    4.9191   -0.6406    0.0515 O   0  0  0  0  0  0  0  0  0  0  0  0
    3.8778    1.3083   -0.5690 O   0  0  0  0  0  0  0  0  0  0  0  0
  1  2  1  0
  2  3  1  0
  3  4  1  0
  4  5  1  0
  5  6  1  0
  6  7  1  0
  7  8  1  0
  8  9  1  0
  8 10  2  0
M  END
$$$$
