OC(CCCCC(O)=O)=O
     RDKit          3D

 10  9  0  0  0  0  0  0  0  0999 V2000
    3.7159    1.1417   -0.4642 O   0  0  0  0  0  0  0  0  0  0  0  0
    3.1690   -0.0713   -0.0563 C   0  0  0  0  0  0  0  0  0  0  0  0
    1.7981   -0.4783   -0.5050 C   0  0  0  0  0  0  0  0  0  0  0  0
    0.7306    0.1610    0.3877 C   0  0  0  0  0  0  0  0  0  0  0  0
   -0.6779   -0.2451   -0.0619 C   0  0  0  0  0  0  0  0  0  0  0  0
   -1.7464    0.3964    0.8300 C   0  0  0  0  0  0  0  0  0  0  0  0
   -3.1225   -0.0171    0.3967 C   0  0  0  0  0  0  0  0  0  0  0  0
   -3.9356   -0.7769    1.2335 O   0  0  0  0  0  0  0  0  0  0  0  0
   -3.5556    0.3322   -0.7331 O   0  0  0  0  0  0  0  0  0  0  0  0
    3.8194   -0.8119    0.7272 O   0  0  0  0  0  0  0  0  0  0  0  0
  1  2  1  0
  2  3  1  0
  2 10  2  0
  3  4  1  0
  4  5  1  0
  5  6  1  0
  6  7  1  0
  7  8  1  0
  7  9  2  0
M  END
$$$$
