O=C1C=CC2(C)C(CCC3C2(F)C(O)CC4(C)C3CC(O)C4(O)C(CO)=O)=C1
     RDKit          3D

 28 31  0  0  1  0  0  0  0  0999 V2000
    5.5705   -0.6887   -2.6806 O   0  0  0  0  0  0  0  0  0  0  0  0
    4.6241   -0.2865   -1.9541 C   0  0  0  0  0  0  0  0  0  0  0  0
    3.7283    0.7701   -2.4270 C   0  0  0  0  0  0  0  0  0  0  0  0
    2.7808    1.2634   -1.6257 C   0  0  0  0  0  0  0  0  0  0  0  0
    2.6908    0.9018   -0.1435 C   0  0  2  0  0  0  0  0  0  0  0  0
    3.4304    2.0283    0.6145 C   0  0  0  0  0  0  0  0  0  0  0  0
    3.4275   -0.4258    0.1636 C   0  0  0  0  0  0  0  0  0  0  0  0
    2.9274   -1.2810    1.3146 C   0  0  0  0  0  0  0  0  0  0  0  0
    1.4408   -1.6779    1.1136 C   0  0  0  0  0  0  0  0  0  0  0  0
    0.7084   -0.7117    0.1501 C   0  0  2  0  0  0  0  0  0  0  0  0
    1.1899    0.7651    0.3687 C   0  0  1  0  0  0  0  0  0  0  0  0
    1.2317    1.0224    1.7307 F   0  0  0  0  0  0  0  0  0  0  0  0
    0.1384    1.7712   -0.2016 C   0  0  1  0  0  0  0  0  0  0  0  0
   -0.0678    1.5573   -1.5760 O   0  0  0  0  0  0  0  0  0  0  0  0
   -1.2306    1.6419    0.5494 C   0  0  0  0  0  0  0  0  0  0  0  0
   -1.6565    0.1614    0.9072 C   0  0  2  0  0  0  0  0  0  0  0  0
   -1.4586   -0.0737    2.4451 C   0  0  0  0  0  0  0  0  0  0  0  0
   -0.8399   -0.8344    0.0721 C   0  0  2  0  0  0  0  0  0  0  0  0
   -1.5229   -2.1853    0.2335 C   0  0  0  0  0  0  0  0  0  0  0  0
   -3.0255   -1.8429    0.4037 C   0  0  1  0  0  0  0  0  0  0  0  0
   -3.5292   -2.4777    1.5536 O   0  0  0  0  0  0  0  0  0  0  0  0
   -3.1278   -0.2762    0.5361 C   0  0  1  0  0  0  0  0  0  0  0  0
   -4.0101    0.0692    1.5851 O   0  0  0  0  0  0  0  0  0  0  0  0
   -3.6548    0.3862   -0.7565 C   0  0  0  0  0  0  0  0  0  0  0  0
   -3.3915   -0.1172   -2.1599 C   0  0  0  0  0  0  0  0  0  0  0  0
   -4.6057   -0.3815   -2.8091 O   0  0  0  0  0  0  0  0  0  0  0  0
   -4.3400    1.3942   -0.6495 O   0  0  0  0  0  0  0  0  0  0  0  0
    4.3688   -0.9169   -0.6578 C   0  0  0  0  0  0  0  0  0  0  0  0
  1  2  2  0
  2  3  1  0
  2 28  1  0
  3  4  2  0
  4  5  1  0
  5  6  1  1
  5  7  1  0
  5 11  1  0
  7  8  1  0
  7 28  2  0
  8  9  1  0
 10  9  1  1
 10 18  1  0
 10 11  1  0
 11 13  1  0
 11 12  1  1
 13 15  1  0
 13 14  1  6
 15 16  1  0
 16 17  1  1
 16 18  1  0
 16 22  1  0
 18 19  1  1
 19 20  1  0
 20 22  1  0
 20 21  1  1
 22 24  1  6
 22 23  1  0
 24 25  1  0
 24 27  2  0
 25 26  1  0
M  END
$$$$
