CCCCCCCCC=O
     RDKit          3D

 10  9  0  0  0  0  0  0  0  0999 V2000
   -4.3981   -0.0847   -0.1998 C   0  0  0  0  0  0  0  0  0  0  0  0
   -3.3091   -0.8510    0.5508 C   0  0  0  0  0  0  0  0  0  0  0  0
   -1.9207   -0.6950   -0.0894 C   0  0  0  0  0  0  0  0  0  0  0  0
   -1.3206    0.7031    0.1392 C   0  0  0  0  0  0  0  0  0  0  0  0
    0.0641    0.8644   -0.5089 C   0  0  0  0  0  0  0  0  0  0  0  0
    1.1656    0.1055    0.2468 C   0  0  0  0  0  0  0  0  0  0  0  0
    2.5459    0.4025   -0.3519 C   0  0  0  0  0  0  0  0  0  0  0  0
    3.6446   -0.3618    0.3923 C   0  0  0  0  0  0  0  0  0  0  0  0
    4.9866   -0.0640   -0.2058 C   0  0  0  0  0  0  0  0  0  0  0  0
    5.8629    0.4556    0.4666 O   0  0  0  0  0  0  0  0  0  0  0  0
  1  2  1  0
  2  3  1  0
  3  4  1  0
  4  5  1  0
  5  6  1  0
  6  7  1  0
  7  8  1  0
  8  9  1  0
  9 10  2  0
M  END
$$$$
