ClC(Cl)=C(Cl)Cl
     RDKit          3D

  6  5  0  0  0  0  0  0  0  0999 V2000
   -1.1748    1.0929   -1.4874 Cl  0  0  0  0  0  0  0  0  0  0  0  0
   -0.6289   -0.0205   -0.2369 C   0  0  0  0  0  0  0  0  0  0  0  0
   -1.7988   -1.1901    0.3673 Cl  0  0  0  0  0  0  0  0  0  0  0  0
    0.6289    0.0206    0.2369 C   0  0  0  0  0  0  0  0  0  0  0  0
    1.1748   -1.0929    1.4874 Cl  0  0  0  0  0  0  0  0  0  0  0  0
    1.7988    1.1901   -0.3673 Cl  0  0  0  0  0  0  0  0  0  0  0  0
  1  2  1  0
  2  4  2  0
  2  3  1  0
  4  5  1  0
  4  6  1  0
M  END
$$$$
