COc1ccc(C(C2CC2)(c3cncnc3)O)cc1
     RDKit          3D

 19 21  0  0  1  0  0  0  0  0999 V2000
   -5.1436    1.3194    1.3169 C   0  0  0  0  0  0  0  0  0  0  0  0
   -4.4929    0.8595    0.1368 O   0  0  0  0  0  0  0  0  0  0  0  0
   -3.1452    0.4752    0.0741 C   0  0  0  0  0  0  0  0  0  0  0  0
   -2.6339    0.0417   -1.1521 C   0  0  0  0  0  0  0  0  0  0  0  0
   -1.2976   -0.3503   -1.2703 C   0  0  0  0  0  0  0  0  0  0  0  0
   -0.4319   -0.3004   -0.1565 C   0  0  0  0  0  0  0  0  0  0  0  0
    1.0391   -0.7479   -0.2230 C   0  0  1  0  0  0  0  0  0  0  0  0
    1.5197   -1.0134   -1.6848 C   0  0  0  0  0  0  0  0  0  0  0  0
    2.8014   -1.8263   -1.8278 C   0  0  0  0  0  0  0  0  0  0  0  0
    1.4683   -2.4327   -2.2409 C   0  0  0  0  0  0  0  0  0  0  0  0
    1.9191    0.3792    0.3209 C   0  0  0  0  0  0  0  0  0  0  0  0
    2.8368    0.1785    1.3688 C   0  0  0  0  0  0  0  0  0  0  0  0
    3.6030    1.2070    1.8148 N   0  0  0  0  0  0  0  0  0  0  0  0
    3.5057    2.4432    1.2648 C   0  0  0  0  0  0  0  0  0  0  0  0
    2.6346    2.6686    0.2499 N   0  0  0  0  0  0  0  0  0  0  0  0
    1.8483    1.6717   -0.2304 C   0  0  0  0  0  0  0  0  0  0  0  0
    1.2021   -1.9009    0.5799 O   0  0  0  0  0  0  0  0  0  0  0  0
   -0.9622    0.1154    1.0809 C   0  0  0  0  0  0  0  0  0  0  0  0
   -2.2984    0.5068    1.1955 C   0  0  0  0  0  0  0  0  0  0  0  0
  1  2  1  0
  2  3  1  0
  3 19  2  0
  3  4  1  0
  4  5  2  0
  5  6  1  0
  6 18  2  0
  7  6  1  6
  7  8  1  0
  7 11  1  0
  7 17  1  0
  8  9  1  0
  8 10  1  0
  9 10  1  0
 11 16  1  0
 11 12  2  0
 12 13  1  0
 13 14  2  0
 14 15  1  0
 15 16  2  0
 18 19  1  0
M  END
$$$$
