O=C(c(cc1I)c(c(I)c1)O)O
     RDKit          3D

 12 12  0  0  0  0  0  0  0  0999 V2000
   -2.9480   -0.0965   -0.7746 O   0  0  0  0  0  0  0  0  0  0  0  0
   -2.1487   -0.6059    0.0549 C   0  0  0  0  0  0  0  0  0  0  0  0
   -0.7041   -0.2690    0.0010 C   0  0  0  0  0  0  0  0  0  0  0  0
    0.2477   -1.2228    0.4023 C   0  0  0  0  0  0  0  0  0  0  0  0
    1.6117   -0.9318    0.3488 C   0  0  0  0  0  0  0  0  0  0  0  0
    3.0233   -2.3801    0.9487 I   0  0  0  0  0  0  0  0  0  0  0  0
   -0.2649    0.9922   -0.4650 C   0  0  0  0  0  0  0  0  0  0  0  0
    1.1171    1.2757   -0.5187 C   0  0  0  0  0  0  0  0  0  0  0  0
    1.8795    3.1332   -1.1993 I   0  0  0  0  0  0  0  0  0  0  0  0
    2.0433    0.3122   -0.1095 C   0  0  0  0  0  0  0  0  0  0  0  0
   -1.2087    1.9471   -0.8520 O   0  0  0  0  0  0  0  0  0  0  0  0
   -2.6522   -1.4860    1.0117 O   0  0  0  0  0  0  0  0  0  0  0  0
  1  2  2  0
  2  3  1  0
  2 12  1  0
  3  4  2  0
  3  7  1  0
  4  5  1  0
  5 10  2  0
  5  6  1  0
  7 11  1  0
  7  8  2  0
  8 10  1  0
  8  9  1  0
M  END
$$$$
