Nc2cccc1ccccc12
     RDKit          3D

 11 12  0  0  0  0  0  0  0  0999 V2000
   -1.3000    2.4226    0.1493 N   0  0  0  0  0  0  0  0  0  0  0  0
   -1.1482    1.0089   -0.0573 C   0  0  0  0  0  0  0  0  0  0  0  0
   -2.3106    0.2255   -0.1368 C   0  0  0  0  0  0  0  0  0  0  0  0
   -2.2350   -1.1553   -0.3084 C   0  0  0  0  0  0  0  0  0  0  0  0
   -0.9965   -1.7833   -0.4063 C   0  0  0  0  0  0  0  0  0  0  0  0
    0.1843   -1.0312   -0.3426 C   0  0  0  0  0  0  0  0  0  0  0  0
    1.4263   -1.6763   -0.4522 C   0  0  0  0  0  0  0  0  0  0  0  0
    2.6087   -0.9393   -0.4043 C   0  0  0  0  0  0  0  0  0  0  0  0
    2.5636    0.4452   -0.2520 C   0  0  0  0  0  0  0  0  0  0  0  0
    1.3369    1.1051   -0.1397 C   0  0  0  0  0  0  0  0  0  0  0  0
    0.1239    0.3813   -0.1729 C   0  0  0  0  0  0  0  0  0  0  0  0
  1  2  1  0
  2  3  2  0
  2 11  1  0
  3  4  1  0
  4  5  2  0
  5  6  1  0
  6  7  1  0
  6 11  2  0
  7  8  2  0
  8  9  1  0
  9 10  2  0
 10 11  1  0
M  END
$$$$
