O=C(c1ccccc1)OCCCC
     RDKit          3D

 13 13  0  0  0  0  0  0  0  0999 V2000
    0.3472   -0.9742    1.8946 O   0  0  0  0  0  0  0  0  0  0  0  0
    0.7424   -0.3649    0.8622 C   0  0  0  0  0  0  0  0  0  0  0  0
    2.1844   -0.1033    0.6599 C   0  0  0  0  0  0  0  0  0  0  0  0
    3.1325   -0.5274    1.6103 C   0  0  0  0  0  0  0  0  0  0  0  0
    4.4938   -0.2762    1.4119 C   0  0  0  0  0  0  0  0  0  0  0  0
    4.9226    0.3986    0.2667 C   0  0  0  0  0  0  0  0  0  0  0  0
    3.9909    0.8239   -0.6828 C   0  0  0  0  0  0  0  0  0  0  0  0
    2.6282    0.5756   -0.4898 C   0  0  0  0  0  0  0  0  0  0  0  0
   -0.1839    0.0648   -0.0943 O   0  0  0  0  0  0  0  0  0  0  0  0
   -1.5848   -0.1534    0.0373 C   0  0  0  0  0  0  0  0  0  0  0  0
   -2.3048    0.4364   -1.1767 C   0  0  0  0  0  0  0  0  0  0  0  0
   -3.8089    0.1242   -1.1836 C   0  0  0  0  0  0  0  0  0  0  0  0
   -4.5747    0.8844   -0.1011 C   0  0  0  0  0  0  0  0  0  0  0  0
  1  2  2  0
  2  3  1  0
  2  9  1  0
  3  8  2  0
  3  4  1  0
  4  5  2  0
  5  6  1  0
  6  7  2  0
  7  8  1  0
  9 10  1  0
 10 11  1  0
 11 12  1  0
 12 13  1  0
M  END
$$$$
