Cc1c(NC(CN(CC)CC)=O)c(C)ccc1
     RDKit          3D

 17 17  0  0  0  0  0  0  0  0999 V2000
   -3.1119    2.3254   -0.0586 C   0  0  0  0  0  0  0  0  0  0  0  0
   -3.2729    0.9329    0.4881 C   0  0  0  0  0  0  0  0  0  0  0  0
   -2.2631   -0.0376    0.3030 C   0  0  0  0  0  0  0  0  0  0  0  0
   -1.0582    0.2988   -0.3976 N   0  0  0  0  0  0  0  0  0  0  0  0
    0.0105    1.0096    0.2410 C   0  0  0  0  0  0  0  0  0  0  0  0
    1.2872    1.2819   -0.4956 C   0  0  0  0  0  0  0  0  0  0  0  0
    2.3509    0.3767   -0.0104 N   0  0  0  0  0  0  0  0  0  0  0  0
    3.6933    1.0068   -0.0685 C   0  0  0  0  0  0  0  0  0  0  0  0
    4.1909    1.3056   -1.4900 C   0  0  0  0  0  0  0  0  0  0  0  0
    2.2780   -0.9501   -0.6660 C   0  0  0  0  0  0  0  0  0  0  0  0
    3.0754   -2.0036    0.1007 C   0  0  0  0  0  0  0  0  0  0  0  0
   -0.1007    1.3798    1.4414 O   0  0  0  0  0  0  0  0  0  0  0  0
   -2.4499   -1.3499    0.7885 C   0  0  0  0  0  0  0  0  0  0  0  0
   -1.3813   -2.3929    0.6065 C   0  0  0  0  0  0  0  0  0  0  0  0
   -3.6333   -1.6734    1.4702 C   0  0  0  0  0  0  0  0  0  0  0  0
   -4.6249   -0.7107    1.6593 C   0  0  0  0  0  0  0  0  0  0  0  0
   -4.4492    0.5839    1.1703 C   0  0  0  0  0  0  0  0  0  0  0  0
  1  2  1  0
  2 17  2  0
  2  3  1  0
  3 13  2  0
  3  4  1  0
  4  5  1  0
  5  6  1  0
  5 12  2  0
  6  7  1  0
  7  8  1  0
  7 10  1  0
  8  9  1  0
 10 11  1  0
 13 14  1  0
 13 15  1  0
 15 16  2  0
 16 17  1  0
M  END
$$$$
