OC(C(C(C(CO)O2)O)O)C2Oc1ccccc1CO
     RDKit          3D

 20 21  0  0  1  0  0  0  0  0999 V2000
   -1.9127    2.4316    1.2269 O   0  0  0  0  0  0  0  0  0  0  0  0
   -1.0426    1.3442    1.0398 C   0  0  1  0  0  0  0  0  0  0  0  0
   -1.8110    0.0210    1.2043 C   0  0  1  0  0  0  0  0  0  0  0  0
   -2.7710   -0.1901    0.0161 C   0  0  1  0  0  0  0  0  0  0  0  0
   -2.0108   -0.0061   -1.3194 C   0  0  1  0  0  0  0  0  0  0  0  0
   -2.9586   -0.1297   -2.5248 C   0  0  0  0  0  0  0  0  0  0  0  0
   -3.4470   -1.4377   -2.6585 O   0  0  0  0  0  0  0  0  0  0  0  0
   -1.4094    1.2793   -1.3735 O   0  0  0  0  0  0  0  0  0  0  0  0
   -3.3380   -1.4738    0.0800 O   0  0  0  0  0  0  0  0  0  0  0  0
   -0.8939   -1.0414    1.2928 O   0  0  0  0  0  0  0  0  0  0  0  0
   -0.4188    1.4424   -0.3711 C   0  0  2  0  0  0  0  0  0  0  0  0
    0.6386    0.4934   -0.5595 O   0  0  0  0  0  0  0  0  0  0  0  0
    1.8972    0.5140    0.0672 C   0  0  0  0  0  0  0  0  0  0  0  0
    2.3432    1.6171    0.8236 C   0  0  0  0  0  0  0  0  0  0  0  0
    3.5957    1.5908    1.4410 C   0  0  0  0  0  0  0  0  0  0  0  0
    4.4171    0.4710    1.3127 C   0  0  0  0  0  0  0  0  0  0  0  0
    3.9929   -0.6245    0.5590 C   0  0  0  0  0  0  0  0  0  0  0  0
    2.7420   -0.6062   -0.0799 C   0  0  0  0  0  0  0  0  0  0  0  0
    2.2909   -1.8083   -0.8700 C   0  0  0  0  0  0  0  0  0  0  0  0
    1.3803   -2.5652   -0.1212 O   0  0  0  0  0  0  0  0  0  0  0  0
  2  1  1  6
  2  3  1  0
  2 11  1  0
  3  4  1  0
  3 10  1  6
  4  5  1  0
  4  9  1  6
  5  6  1  6
  5  8  1  0
  6  7  1  0
  8 11  1  0
 11 12  1  1
 12 13  1  0
 13 14  2  0
 13 18  1  0
 14 15  1  0
 15 16  2  0
 16 17  1  0
 17 18  2  0
 18 19  1  0
 19 20  1  0
M  END
$$$$
