O=C(C=C)OCC
     RDKit          3D

  7  6  0  0  0  0  0  0  0  0999 V2000
    0.7060   -1.0059    0.8765 O   0  0  0  0  0  0  0  0  0  0  0  0
    0.7219   -0.2439   -0.1298 C   0  0  0  0  0  0  0  0  0  0  0  0
    1.9826    0.3508   -0.6002 C   0  0  0  0  0  0  0  0  0  0  0  0
    3.1498    0.1269    0.0010 C   0  0  0  0  0  0  0  0  0  0  0  0
   -0.4594    0.0441   -0.8222 O   0  0  0  0  0  0  0  0  0  0  0  0
   -1.7410   -0.4410   -0.4261 C   0  0  0  0  0  0  0  0  0  0  0  0
   -2.2635    0.3373    0.7759 C   0  0  0  0  0  0  0  0  0  0  0  0
  1  2  2  0
  2  3  1  0
  2  5  1  0
  3  4  2  0
  5  6  1  0
  6  7  1  0
M  END
$$$$
