CC1CCC(C(C)C)C(C1)=O
     RDKit          3D

 11 11  0  0  1  0  0  0  0  0999 V2000
    3.7057   -0.3297   -0.2873 C   0  0  0  0  0  0  0  0  0  0  0  0
    2.2961    0.2073   -0.0179 C   0  0  2  0  0  0  0  0  0  0  0  0
    1.5726   -0.6664    1.0281 C   0  0  0  0  0  0  0  0  0  0  0  0
    0.1472   -0.1543    1.3064 C   0  0  0  0  0  0  0  0  0  0  0  0
   -0.7049   -0.0944    0.0144 C   0  0  1  0  0  0  0  0  0  0  0  0
   -2.1453    0.4699    0.2515 C   0  0  0  0  0  0  0  0  0  0  0  0
   -3.0371    0.2331   -0.9822 C   0  0  0  0  0  0  0  0  0  0  0  0
   -2.8355   -0.1535    1.4782 C   0  0  0  0  0  0  0  0  0  0  0  0
    0.0807    0.7041   -1.0135 C   0  0  0  0  0  0  0  0  0  0  0  0
    1.4849    0.2736   -1.3236 C   0  0  0  0  0  0  0  0  0  0  0  0
   -0.3728    1.7134   -1.5333 O   0  0  0  0  0  0  0  0  0  0  0  0
  2  1  1  6
  2  3  1  0
  2 10  1  0
  3  4  1  0
  4  5  1  0
  5  6  1  1
  5  9  1  0
  6  8  1  0
  6  7  1  0
  9 10  1  0
  9 11  2  0
M  END
$$$$
