CCCCC(=O)CC(=O)C
     RDKit          3D

 10  9  0  0  0  0  0  0  0  0999 V2000
    4.1636    0.0042    0.0789 C   0  0  0  0  0  0  0  0  0  0  0  0
    2.8402   -0.6788    0.4113 C   0  0  0  0  0  0  0  0  0  0  0  0
    1.6770   -0.0327   -0.3499 C   0  0  0  0  0  0  0  0  0  0  0  0
    0.3501   -0.7222   -0.0147 C   0  0  0  0  0  0  0  0  0  0  0  0
   -0.7907   -0.0755   -0.7557 C   0  0  0  0  0  0  0  0  0  0  0  0
   -0.8409   -0.1613   -1.9740 O   0  0  0  0  0  0  0  0  0  0  0  0
   -1.8697    0.6823   -0.0228 C   0  0  0  0  0  0  0  0  0  0  0  0
   -3.2034   -0.0243   -0.0559 C   0  0  0  0  0  0  0  0  0  0  0  0
   -3.3159   -1.1328   -0.5597 O   0  0  0  0  0  0  0  0  0  0  0  0
   -4.4108    0.6263    0.5473 C   0  0  0  0  0  0  0  0  0  0  0  0
  1  2  1  0
  2  3  1  0
  3  4  1  0
  4  5  1  0
  5  7  1  0
  5  6  2  0
  7  8  1  0
  8 10  1  0
  8  9  2  0
M  END
$$$$
