O=C(CS1)NC1=S
     RDKit          3D

  7  7  0  0  0  0  0  0  0  0999 V2000
   -1.5487    1.5409    0.4232 O   0  0  0  0  0  0  0  0  0  0  0  0
   -0.7048    0.6474    0.1497 C   0  0  0  0  0  0  0  0  0  0  0  0
   -1.0598   -0.8000    0.1110 C   0  0  0  0  0  0  0  0  0  0  0  0
    0.4446   -1.7227   -0.3931 S   0  0  0  0  0  0  0  0  0  0  0  0
    0.6486    0.9612   -0.1146 N   0  0  0  0  0  0  0  0  0  0  0  0
    1.3952   -0.2077   -0.3910 C   0  0  0  0  0  0  0  0  0  0  0  0
    3.0223   -0.2265   -0.2474 S   0  0  0  0  0  0  0  0  0  0  0  0
  1  2  2  0
  2  3  1  0
  2  5  1  0
  3  4  1  0
  4  6  1  0
  5  6  1  0
  6  7  2  0
M  END
$$$$
