S=C(NC=C1)NC1=O
     RDKit          3D

  8  8  0  0  0  0  0  0  0  0999 V2000
    2.7126   -1.2064   -0.0375 S   0  0  0  0  0  0  0  0  0  0  0  0
    1.2174   -0.5345   -0.0168 C   0  0  0  0  0  0  0  0  0  0  0  0
    1.0796    0.8214   -0.0086 N   0  0  0  0  0  0  0  0  0  0  0  0
   -0.1525    1.3951    0.0085 C   0  0  0  0  0  0  0  0  0  0  0  0
   -1.2939    0.5965    0.0180 C   0  0  0  0  0  0  0  0  0  0  0  0
    0.1114   -1.3316   -0.0077 N   0  0  0  0  0  0  0  0  0  0  0  0
   -1.1370   -0.7894    0.0094 C   0  0  0  0  0  0  0  0  0  0  0  0
   -2.1510   -1.5372    0.0177 O   0  0  0  0  0  0  0  0  0  0  0  0
  1  2  2  0
  2  3  1  0
  2  6  1  0
  3  4  1  0
  4  5  2  0
  5  7  1  0
  6  7  1  0
  7  8  2  0
M  END
$$$$
