ClCCCCl
     RDKit          3D

  5  4  0  0  0  0  0  0  0  0999 V2000
   -1.8412    0.0524    1.5228 Cl  0  0  0  0  0  0  0  0  0  0  0  0
   -1.1146    0.6519    0.0072 C   0  0  0  0  0  0  0  0  0  0  0  0
   -0.0974   -0.3455   -0.5577 C   0  0  0  0  0  0  0  0  0  0  0  0
    1.1680   -0.4624    0.2987 C   0  0  0  0  0  0  0  0  0  0  0  0
    2.1460    1.0283    0.2216 Cl  0  0  0  0  0  0  0  0  0  0  0  0
  1  2  1  0
  2  3  1  0
  3  4  1  0
  4  5  1  0
M  END
$$$$
