C1CCOCC1
     RDKit          3D

  6  6  0  0  0  0  0  0  0  0999 V2000
   -0.8159   -0.8777   -0.4591 C   0  0  0  0  0  0  0  0  0  0  0  0
    0.5173   -1.2071    0.2148 C   0  0  0  0  0  0  0  0  0  0  0  0
    1.5553   -0.0863   -0.0289 C   0  0  0  0  0  0  0  0  0  0  0  0
    0.9909    1.0907   -0.5868 O   0  0  0  0  0  0  0  0  0  0  0  0
   -0.1371    1.4924    0.1655 C   0  0  0  0  0  0  0  0  0  0  0  0
   -1.3087    0.5137   -0.0368 C   0  0  0  0  0  0  0  0  0  0  0  0
  1  2  1  0
  1  6  1  0
  2  3  1  0
  3  4  1  0
  4  5  1  0
  5  6  1  0
M  END
$$$$
