CCCCCCCCCO
     RDKit          3D

 10  9  0  0  0  0  0  0  0  0999 V2000
   -4.5076    1.0537    0.7243 C   0  0  0  0  0  0  0  0  0  0  0  0
   -3.0072    0.7835    0.6572 C   0  0  0  0  0  0  0  0  0  0  0  0
   -2.6124    0.1917   -0.7037 C   0  0  0  0  0  0  0  0  0  0  0  0
   -1.0923    0.0258   -0.8566 C   0  0  0  0  0  0  0  0  0  0  0  0
   -0.5240   -1.0790    0.0518 C   0  0  0  0  0  0  0  0  0  0  0  0
    0.9322   -1.4332   -0.2890 C   0  0  0  0  0  0  0  0  0  0  0  0
    1.9142   -0.3091    0.0736 C   0  0  0  0  0  0  0  0  0  0  0  0
    3.3647   -0.7500   -0.1651 C   0  0  0  0  0  0  0  0  0  0  0  0
    4.3678    0.3342    0.2399 C   0  0  0  0  0  0  0  0  0  0  0  0
    4.2699    1.4445   -0.6121 O   0  0  0  0  0  0  0  0  0  0  0  0
  1  2  1  0
  2  3  1  0
  3  4  1  0
  4  5  1  0
  5  6  1  0
  6  7  1  0
  7  8  1  0
  8  9  1  0
  9 10  1  0
M  END
$$$$
