OC(C4)CCC1(C)C4=CCC2C1CCC3(C)C2CCC3C(C)=O
     RDKit          3D

 23 26  0  0  1  0  0  0  0  0999 V2000
    6.0674    0.2477    1.3263 O   0  0  0  0  0  0  0  0  0  0  0  0
    4.6696    0.2406    1.2019 C   0  0  1  0  0  0  0  0  0  0  0  0
    4.2733    1.0578   -0.0347 C   0  0  0  0  0  0  0  0  0  0  0  0
    4.1619   -1.2103    1.0974 C   0  0  0  0  0  0  0  0  0  0  0  0
    2.6373   -1.2765    0.8731 C   0  0  0  0  0  0  0  0  0  0  0  0
    2.1527   -0.4354   -0.3466 C   0  0  2  0  0  0  0  0  0  0  0  0
    2.6509   -1.0906   -1.6641 C   0  0  0  0  0  0  0  0  0  0  0  0
    2.7748    0.9741   -0.2307 C   0  0  0  0  0  0  0  0  0  0  0  0
    2.0351    2.1097   -0.1186 C   0  0  0  0  0  0  0  0  0  0  0  0
    0.5281    2.1154   -0.0191 C   0  0  0  0  0  0  0  0  0  0  0  0
    0.0546    0.7697    0.5359 C   0  0  2  0  0  0  0  0  0  0  0  0
    0.5820   -0.3487   -0.4020 C   0  0  2  0  0  0  0  0  0  0  0  0
   -0.1969   -1.6704   -0.1738 C   0  0  0  0  0  0  0  0  0  0  0  0
   -1.7175   -1.5271   -0.4898 C   0  0  0  0  0  0  0  0  0  0  0  0
   -2.2946   -0.0875   -0.2631 C   0  0  2  0  0  0  0  0  0  0  0  0
   -2.3540    0.7107   -1.6066 C   0  0  0  0  0  0  0  0  0  0  0  0
   -1.4655    0.6150    0.8232 C   0  0  2  0  0  0  0  0  0  0  0  0
   -2.2933    1.8099    1.2714 C   0  0  0  0  0  0  0  0  0  0  0  0
   -3.7475    1.3258    1.1323 C   0  0  0  0  0  0  0  0  0  0  0  0
   -3.6977   -0.0499    0.4083 C   0  0  1  0  0  0  0  0  0  0  0  0
   -4.8698   -0.3102   -0.5288 C   0  0  0  0  0  0  0  0  0  0  0  0
   -5.1411   -1.6876   -1.0564 C   0  0  0  0  0  0  0  0  0  0  0  0
   -5.6152    0.5988   -0.8630 O   0  0  0  0  0  0  0  0  0  0  0  0
  2  1  1  6
  2  4  1  0
  2  3  1  0
  3  8  1  0
  4  5  1  0
  5  6  1  0
  6  7  1  6
  6 12  1  0
  6  8  1  0
  8  9  2  0
  9 10  1  0
 11 10  1  6
 11 17  1  0
 11 12  1  0
 12 13  1  1
 13 14  1  0
 14 15  1  0
 15 16  1  6
 15 17  1  0
 15 20  1  0
 17 18  1  6
 18 19  1  0
 19 20  1  0
 20 21  1  6
 21 22  1  0
 21 23  2  0
M  END
$$$$
