OCc(c(Cl)ccc1)c1Cl
     RDKit          3D

 10 10  0  0  0  0  0  0  0  0999 V2000
    2.4433   -0.4721    1.1061 O   0  0  0  0  0  0  0  0  0  0  0  0
    1.9625    0.1782   -0.0374 C   0  0  0  0  0  0  0  0  0  0  0  0
    0.4532    0.0959   -0.0670 C   0  0  0  0  0  0  0  0  0  0  0  0
   -0.1759   -1.1546   -0.2752 C   0  0  0  0  0  0  0  0  0  0  0  0
    0.7523   -2.6344   -0.5069 Cl  0  0  0  0  0  0  0  0  0  0  0  0
   -1.5715   -1.2441   -0.3083 C   0  0  0  0  0  0  0  0  0  0  0  0
   -2.3552   -0.1049   -0.1355 C   0  0  0  0  0  0  0  0  0  0  0  0
   -1.7505    1.1334    0.0741 C   0  0  0  0  0  0  0  0  0  0  0  0
   -0.3558    1.2460    0.1112 C   0  0  0  0  0  0  0  0  0  0  0  0
    0.3211    2.8463    0.4041 Cl  0  0  0  0  0  0  0  0  0  0  0  0
  1  2  1  0
  2  3  1  0
  3  4  2  0
  3  9  1  0
  4  6  1  0
  4  5  1  0
  6  7  2  0
  7  8  1  0
  8  9  2  0
  9 10  1  0
M  END
$$$$
