CNC(ON=C1C2C(C#N)CC(C2)C1Cl)=O
     RDKit          3D

 16 17  0  0  1  0  0  0  0  0999 V2000
    5.5339   -0.1045    0.6947 C   0  0  0  0  0  0  0  0  0  0  0  0
    4.1588   -0.5560    0.5050 N   0  0  0  0  0  0  0  0  0  0  0  0
    3.0838    0.3184    0.1434 C   0  0  0  0  0  0  0  0  0  0  0  0
    1.8026   -0.2060   -0.0153 O   0  0  0  0  0  0  0  0  0  0  0  0
    0.7431    0.6022   -0.3641 N   0  0  0  0  0  0  0  0  0  0  0  0
   -0.4488    0.1173   -0.5124 C   0  0  0  0  0  0  0  0  0  0  0  0
   -1.6718    0.9362   -0.7789 C   0  0  2  0  0  0  0  0  0  0  0  0
   -2.4049    1.0833    0.5717 C   0  0  1  0  0  0  0  0  0  0  0  0
   -3.4956    2.0704    0.4851 C   0  0  0  0  0  0  0  0  0  0  0  0
   -4.3521    2.8456    0.4168 N   0  0  0  0  0  0  0  0  0  0  0  0
   -2.9390   -0.3514    0.8273 C   0  0  0  0  0  0  0  0  0  0  0  0
   -2.3979   -1.1437   -0.3849 C   0  0  1  0  0  0  0  0  0  0  0  0
   -2.5200   -0.1019   -1.4870 C   0  0  0  0  0  0  0  0  0  0  0  0
   -0.8639   -1.2936   -0.2365 C   0  0  1  0  0  0  0  0  0  0  0  0
   -0.1911   -2.4106   -1.4579 Cl  0  0  0  0  0  0  0  0  0  0  0  0
    3.2885    1.5508   -0.0310 O   0  0  0  0  0  0  0  0  0  0  0  0
  1  2  1  0
  2  3  1  0
  3 16  2  0
  3  4  1  0
  4  5  1  0
  5  6  2  0
  7  6  1  1
  6 14  1  0
  7 13  1  0
  7  8  1  0
  8 11  1  0
  8  9  1  6
  9 10  3  0
 12 11  1  1
 12 13  1  0
 12 14  1  0
 14 15  1  6
M  END
$$$$
