CC(C(C(C)=O)CCC)=O
     RDKit          3D

 10  9  0  0  0  0  0  0  0  0999 V2000
   -2.2116   -1.6338    0.7171 C   0  0  0  0  0  0  0  0  0  0  0  0
   -2.0263   -0.5762   -0.3377 C   0  0  0  0  0  0  0  0  0  0  0  0
   -0.6612   -0.0541   -0.7547 C   0  0  0  0  0  0  0  0  0  0  0  0
   -0.5370    1.3950   -0.3365 C   0  0  0  0  0  0  0  0  0  0  0  0
   -0.5728    1.8110    1.1069 C   0  0  0  0  0  0  0  0  0  0  0  0
   -0.4212    2.2572   -1.1946 O   0  0  0  0  0  0  0  0  0  0  0  0
    0.5191   -0.9163   -0.2370 C   0  0  0  0  0  0  0  0  0  0  0  0
    1.8752   -0.5787   -0.8904 C   0  0  0  0  0  0  0  0  0  0  0  0
    2.6158    0.5645   -0.1960 C   0  0  0  0  0  0  0  0  0  0  0  0
   -3.0197   -0.1096   -0.8761 O   0  0  0  0  0  0  0  0  0  0  0  0
  1  2  1  0
  2  3  1  0
  2 10  2  0
  3  7  1  0
  3  4  1  0
  4  5  1  0
  4  6  2  0
  7  8  1  0
  8  9  1  0
M  END
$$$$
