Clc(cc(Cl)c(Cl)c2)c2c1ccccc1
     RDKit          3D

 15 16  0  0  0  0  0  0  0  0999 V2000
    0.3380   -1.3404    2.5408 Cl  0  0  0  0  0  0  0  0  0  0  0  0
    1.2792   -0.8276    1.1431 C   0  0  0  0  0  0  0  0  0  0  0  0
    2.6569   -1.0738    1.1479 C   0  0  0  0  0  0  0  0  0  0  0  0
    3.4616   -0.6390    0.0905 C   0  0  0  0  0  0  0  0  0  0  0  0
    5.1878   -0.9709    0.1416 Cl  0  0  0  0  0  0  0  0  0  0  0  0
    2.8857    0.0569   -0.9834 C   0  0  0  0  0  0  0  0  0  0  0  0
    3.8631    0.6258   -2.3301 Cl  0  0  0  0  0  0  0  0  0  0  0  0
    1.5094    0.3058   -0.9931 C   0  0  0  0  0  0  0  0  0  0  0  0
    0.6920   -0.1386    0.0597 C   0  0  0  0  0  0  0  0  0  0  0  0
   -0.7624    0.1317    0.0052 C   0  0  0  0  0  0  0  0  0  0  0  0
   -1.2308    1.4483   -0.1451 C   0  0  0  0  0  0  0  0  0  0  0  0
   -2.6037    1.7045   -0.2144 C   0  0  0  0  0  0  0  0  0  0  0  0
   -3.5177    0.6498   -0.1432 C   0  0  0  0  0  0  0  0  0  0  0  0
   -3.0602   -0.6635   -0.0064 C   0  0  0  0  0  0  0  0  0  0  0  0
   -1.6882   -0.9243    0.0635 C   0  0  0  0  0  0  0  0  0  0  0  0
  1  2  1  0
  2  3  2  0
  2  9  1  0
  3  4  1  0
  4  6  2  0
  4  5  1  0
  6  8  1  0
  6  7  1  0
  8  9  2  0
  9 10  1  0
 10 15  1  0
 10 11  2  0
 11 12  1  0
 12 13  2  0
 13 14  1  0
 14 15  2  0
M  END
$$$$
