C12OC(C(Cl)(Cl)Cl)OC1(C(C(O2)C(O)(CO))O)
     RDKit          3D

 17 18  0  0  1  0  0  0  0  0999 V2000
    1.1311    0.8106    1.1898 C   0  0  1  0  0  0  0  0  0  0  0  0
    2.1969   -0.0834    1.3014 O   0  0  0  0  0  0  0  0  0  0  0  0
    2.9019    0.0302    0.0878 C   0  0  1  0  0  0  0  0  0  0  0  0
    3.4758   -1.3325   -0.3231 C   0  0  0  0  0  0  0  0  0  0  0  0
    2.1743   -2.5275   -0.5711 Cl  0  0  0  0  0  0  0  0  0  0  0  0
    4.4016   -1.1756   -1.8393 Cl  0  0  0  0  0  0  0  0  0  0  0  0
    4.5756   -1.9415    0.9419 Cl  0  0  0  0  0  0  0  0  0  0  0  0
    2.0558    0.5259   -0.9214 O   0  0  0  0  0  0  0  0  0  0  0  0
    1.0977    1.2769   -0.2405 C   0  0  1  0  0  0  0  0  0  0  0  0
   -0.2984    0.9341   -0.7126 C   0  0  1  0  0  0  0  0  0  0  0  0
   -0.7273   -0.1322    0.2993 C   0  0  1  0  0  0  0  0  0  0  0  0
   -0.0776    0.1548    1.5149 O   0  0  0  0  0  0  0  0  0  0  0  0
   -2.2498   -0.2894    0.5255 C   0  0  1  0  0  0  0  0  0  0  0  0
   -2.7737    0.8600    1.1395 O   0  0  0  0  0  0  0  0  0  0  0  0
   -3.0142   -0.5892   -0.7784 C   0  0  0  0  0  0  0  0  0  0  0  0
   -2.5167   -1.7442   -1.3993 O   0  0  0  0  0  0  0  0  0  0  0  0
   -1.1303    2.0715   -0.6938 O   0  0  0  0  0  0  0  0  0  0  0  0
  1  9  1  0
  1 12  1  6
  1  2  1  0
  2  3  1  0
  3  4  1  6
  3  8  1  0
  4  5  1  0
  4  6  1  0
  4  7  1  0
  9  8  1  6
  9 10  1  0
 10 11  1  0
 10 17  1  1
 11 13  1  0
 11 12  1  1
 13 15  1  6
 13 14  1  0
 15 16  1  0
M  END
$$$$
