Clc(cccc2Cl)c2c1c(Cl)cccc1Cl
     RDKit          3D

 16 17  0  0  0  0  0  0  0  0999 V2000
   -0.6112   -2.2407    1.5673 Cl  0  0  0  0  0  0  0  0  0  0  0  0
   -1.4183   -1.1496    0.4458 C   0  0  0  0  0  0  0  0  0  0  0  0
   -2.7810   -1.3370    0.1898 C   0  0  0  0  0  0  0  0  0  0  0  0
   -3.4541   -0.4913   -0.6937 C   0  0  0  0  0  0  0  0  0  0  0  0
   -2.7698    0.5475   -1.3273 C   0  0  0  0  0  0  0  0  0  0  0  0
   -1.4070    0.7478   -1.0816 C   0  0  0  0  0  0  0  0  0  0  0  0
   -0.5854    2.0705   -1.9033 Cl  0  0  0  0  0  0  0  0  0  0  0  0
   -0.7204   -0.1024   -0.1904 C   0  0  0  0  0  0  0  0  0  0  0  0
    0.7204    0.1025    0.0748 C   0  0  0  0  0  0  0  0  0  0  0  0
    1.1367    0.9458    1.1255 C   0  0  0  0  0  0  0  0  0  0  0  0
   -0.0286    1.7776    2.1501 Cl  0  0  0  0  0  0  0  0  0  0  0  0
    2.5014    1.1345    1.3701 C   0  0  0  0  0  0  0  0  0  0  0  0
    3.4541    0.4913    0.5781 C   0  0  0  0  0  0  0  0  0  0  0  0
    3.0494   -0.3451   -0.4638 C   0  0  0  0  0  0  0  0  0  0  0  0
    1.6885   -0.5439   -0.7210 C   0  0  0  0  0  0  0  0  0  0  0  0
    1.2252   -1.6074   -2.0454 Cl  0  0  0  0  0  0  0  0  0  0  0  0
  1  2  1  0
  2  3  2  0
  2  8  1  0
  3  4  1  0
  4  5  2  0
  5  6  1  0
  6  7  1  0
  6  8  2  0
  8  9  1  0
  9 15  1  0
  9 10  2  0
 10 11  1  0
 10 12  1  0
 12 13  2  0
 13 14  1  0
 14 15  2  0
 15 16  1  0
M  END
$$$$
