
     RDKit          3D

 17 17  0  0  1  0  0  0  0  0999 V2000
   -1.2952   -0.7474    1.0332 O   0  0  0  0  0  0  0  0  0  0  0  0
   -2.1112    0.1045    0.5865 C   0  0  0  0  0  0  0  0  0  0  0  0
   -3.5182   -0.1708    0.6166 N   0  0  0  0  0  0  0  0  0  0  0  0
   -4.0353   -1.4460    1.1122 C   0  0  0  0  0  0  0  0  0  0  0  0
   -5.5577   -1.4873    1.0316 C   0  0  0  0  0  0  0  0  0  0  0  0
   -1.6156    1.4186    0.0328 C   0  0  1  0  0  0  0  0  0  0  0  0
   -0.2278    1.6413    0.3201 O   0  0  0  0  0  0  0  0  0  0  0  0
    0.8438    0.8955   -0.1934 C   0  0  0  0  0  0  0  0  0  0  0  0
    2.1810    1.2689    0.1641 N   0  0  0  0  0  0  0  0  0  0  0  0
    3.3477    0.4791   -0.1237 C   0  0  0  0  0  0  0  0  0  0  0  0
    3.3096   -0.9278   -0.0924 C   0  0  0  0  0  0  0  0  0  0  0  0
    4.4659   -1.6703   -0.3526 C   0  0  0  0  0  0  0  0  0  0  0  0
    5.6697   -1.0185   -0.6321 C   0  0  0  0  0  0  0  0  0  0  0  0
    5.7215    0.3775   -0.6427 C   0  0  0  0  0  0  0  0  0  0  0  0
    4.5679    1.1236   -0.3821 C   0  0  0  0  0  0  0  0  0  0  0  0
    0.6390   -0.0679   -0.9812 O   0  0  0  0  0  0  0  0  0  0  0  0
   -1.9054    1.5469   -1.4671 C   0  0  0  0  0  0  0  0  0  0  0  0
  1  2  2  0
  6  2  1  6
  2  3  1  0
  3  4  1  0
  4  5  1  0
  6 17  1  0
  6  7  1  0
  7  8  1  0
  8  9  1  0
  8 16  2  0
  9 10  1  0
 10 15  2  0
 10 11  1  0
 11 12  2  0
 12 13  1  0
 13 14  2  0
 14 15  1  0
M  END
$$$$
