CSc2ncc1nccnc1n2
     RDKit          3D

 12 13  0  0  0  0  0  0  0  0999 V2000
    3.6793    0.4777    0.0268 C   0  0  0  0  0  0  0  0  0  0  0  0
    2.9444    0.2983   -1.6277 S   0  0  0  0  0  0  0  0  0  0  0  0
    1.3285   -0.1257   -0.9878 C   0  0  0  0  0  0  0  0  0  0  0  0
    1.0112   -1.4290   -0.7561 N   0  0  0  0  0  0  0  0  0  0  0  0
   -0.2090   -1.7794   -0.2702 C   0  0  0  0  0  0  0  0  0  0  0  0
   -1.1534   -0.7893   -0.0050 C   0  0  0  0  0  0  0  0  0  0  0  0
   -2.3859   -1.0902    0.4816 N   0  0  0  0  0  0  0  0  0  0  0  0
   -3.2926   -0.1079    0.7328 C   0  0  0  0  0  0  0  0  0  0  0  0
   -2.9522    1.2273    0.4872 C   0  0  0  0  0  0  0  0  0  0  0  0
   -1.7183    1.5285   -0.0000 N   0  0  0  0  0  0  0  0  0  0  0  0
   -0.8104    0.5499   -0.2518 C   0  0  0  0  0  0  0  0  0  0  0  0
    0.4198    0.8553   -0.7377 N   0  0  0  0  0  0  0  0  0  0  0  0
  1  2  1  0
  2  3  1  0
  3  4  2  0
  3 12  1  0
  4  5  1  0
  5  6  2  0
  6 11  1  0
  6  7  1  0
  7  8  2  0
  8  9  1  0
  9 10  2  0
 10 11  1  0
 11 12  2  0
M  END
$$$$
