S=C2N=CC1=C(N2)N=CC=N1
     RDKit          3D

 11 12  0  0  0  0  0  0  0  0999 V2000
    3.8932   -1.1355    0.2190 S   0  0  0  0  0  0  0  0  0  0  0  0
    2.4219   -0.4261    0.1334 C   0  0  0  0  0  0  0  0  0  0  0  0
    2.3339    0.9318    0.1151 N   0  0  0  0  0  0  0  0  0  0  0  0
    1.1311    1.5597    0.0446 C   0  0  0  0  0  0  0  0  0  0  0  0
   -0.0367    0.8028   -0.0100 C   0  0  0  0  0  0  0  0  0  0  0  0
    0.0671   -0.5978    0.0096 C   0  0  0  0  0  0  0  0  0  0  0  0
    1.2912   -1.1873    0.0808 N   0  0  0  0  0  0  0  0  0  0  0  0
   -1.0655   -1.3488   -0.0432 N   0  0  0  0  0  0  0  0  0  0  0  0
   -2.2910   -0.7632   -0.1145 C   0  0  0  0  0  0  0  0  0  0  0  0
   -2.3909    0.6321   -0.1338 C   0  0  0  0  0  0  0  0  0  0  0  0
   -1.2613    1.3875   -0.0812 N   0  0  0  0  0  0  0  0  0  0  0  0
  1  2  2  0
  2  7  1  0
  2  3  1  0
  3  4  2  0
  4  5  1  0
  5  6  2  0
  5 11  1  0
  6  7  1  0
  6  8  1  0
  8  9  2  0
  9 10  1  0
 10 11  2  0
M  END
$$$$
