Brc1cc(C#N)cc(Br)c1O
     RDKit          3D

 11 11  0  0  0  0  0  0  0  0999 V2000
   -1.6207    2.7563    0.6760 Br  0  0  0  0  0  0  0  0  0  0  0  0
   -0.7059    1.1204    0.2762 C   0  0  0  0  0  0  0  0  0  0  0  0
    0.6936    1.1375    0.2379 C   0  0  0  0  0  0  0  0  0  0  0  0
    1.4075   -0.0311   -0.0495 C   0  0  0  0  0  0  0  0  0  0  0  0
    2.8464   -0.0066   -0.0873 C   0  0  0  0  0  0  0  0  0  0  0  0
    4.0031    0.0131   -0.1177 N   0  0  0  0  0  0  0  0  0  0  0  0
    0.7201   -1.2234   -0.3001 C   0  0  0  0  0  0  0  0  0  0  0  0
   -0.6780   -1.2499   -0.2640 C   0  0  0  0  0  0  0  0  0  0  0  0
   -1.5882   -2.8973   -0.6114 Br  0  0  0  0  0  0  0  0  0  0  0  0
   -1.4004   -0.0809    0.0238 C   0  0  0  0  0  0  0  0  0  0  0  0
   -2.7950   -0.1373    0.0530 O   0  0  0  0  0  0  0  0  0  0  0  0
  1  2  1  0
  2  3  2  0
  2 10  1  0
  3  4  1  0
  4  7  2  0
  4  5  1  0
  5  6  3  0
  7  8  1  0
  8  9  1  0
  8 10  2  0
 10 11  1  0
M  END
$$$$
