O=C1C(Cl)=C(N)C=NN1c2ccccc2
     RDKit          3D

 15 16  0  0  0  0  0  0  0  0999 V2000
    0.3472   -2.2496    0.1832 O   0  0  0  0  0  0  0  0  0  0  0  0
    0.9638   -1.1509    0.1048 C   0  0  0  0  0  0  0  0  0  0  0  0
    2.3638   -1.1477    0.0339 C   0  0  0  0  0  0  0  0  0  0  0  0
    3.2387   -2.6794    0.0162 Cl  0  0  0  0  0  0  0  0  0  0  0  0
    3.0422    0.0803   -0.0102 C   0  0  0  0  0  0  0  0  0  0  0  0
    4.4719    0.1502   -0.0800 N   0  0  0  0  0  0  0  0  0  0  0  0
    2.2947    1.2576    0.0222 C   0  0  0  0  0  0  0  0  0  0  0  0
    0.9411    1.1974    0.0829 N   0  0  0  0  0  0  0  0  0  0  0  0
    0.2785    0.0374    0.1119 N   0  0  0  0  0  0  0  0  0  0  0  0
   -1.1602    0.0821    0.1717 C   0  0  0  0  0  0  0  0  0  0  0  0
   -1.9444   -0.6785   -0.7154 C   0  0  0  0  0  0  0  0  0  0  0  0
   -3.3400   -0.6078   -0.6619 C   0  0  0  0  0  0  0  0  0  0  0  0
   -3.9642    0.2279    0.2678 C   0  0  0  0  0  0  0  0  0  0  0  0
   -3.1938    0.9992    1.1418 C   0  0  0  0  0  0  0  0  0  0  0  0
   -1.7979    0.9322    1.0913 C   0  0  0  0  0  0  0  0  0  0  0  0
  1  2  2  0
  2  3  1  0
  2  9  1  0
  3  5  2  0
  3  4  1  0
  5  7  1  0
  5  6  1  0
  7  8  2  0
  8  9  1  0
  9 10  1  0
 10 15  1  0
 10 11  2  0
 11 12  1  0
 12 13  2  0
 13 14  1  0
 14 15  2  0
M  END
$$$$
