Cc1c(Cc3ccccc23)c2ccc1
     RDKit          3D

 14 16  0  0  0  0  0  0  0  0999 V2000
   -3.1493   -1.4035    0.1263 C   0  0  0  0  0  0  0  0  0  0  0  0
   -2.2982   -0.1700    0.2049 C   0  0  0  0  0  0  0  0  0  0  0  0
   -0.8993   -0.2561    0.1440 C   0  0  0  0  0  0  0  0  0  0  0  0
   -0.0501   -1.4908    0.0007 C   0  0  0  0  0  0  0  0  0  0  0  0
    1.3235   -0.8867    0.0029 C   0  0  0  0  0  0  0  0  0  0  0  0
    2.5474   -1.5492   -0.1032 C   0  0  0  0  0  0  0  0  0  0  0  0
    3.7283   -0.7877   -0.0795 C   0  0  0  0  0  0  0  0  0  0  0  0
    3.6700    0.6145    0.0487 C   0  0  0  0  0  0  0  0  0  0  0  0
    2.4307    1.2666    0.1544 C   0  0  0  0  0  0  0  0  0  0  0  0
    1.2727    0.4885    0.1285 C   0  0  0  0  0  0  0  0  0  0  0  0
   -0.1167    0.8832    0.2167 C   0  0  0  0  0  0  0  0  0  0  0  0
   -0.6757    2.1531    0.3521 C   0  0  0  0  0  0  0  0  0  0  0  0
   -2.0728    2.2595    0.4147 C   0  0  0  0  0  0  0  0  0  0  0  0
   -2.8804    1.1079    0.3419 C   0  0  0  0  0  0  0  0  0  0  0  0
  1  2  1  0
  2 14  2  0
  2  3  1  0
  3  4  1  0
  3 11  2  0
  4  5  1  0
  5  6  1  0
  5 10  2  0
  6  7  2  0
  7  8  1  0
  8  9  2  0
  9 10  1  0
 10 11  1  0
 11 12  1  0
 12 13  2  0
 13 14  1  0
M  END
$$$$
