O=C(O)c1c(OC)c(Cl)ccc1Cl
     RDKit          3D

 13 13  0  0  0  0  0  0  0  0999 V2000
    0.6822    2.6683   -1.1679 O   0  0  0  0  0  0  0  0  0  0  0  0
    0.6094    1.8981   -0.1732 C   0  0  0  0  0  0  0  0  0  0  0  0
    1.4524    2.1103    0.9144 O   0  0  0  0  0  0  0  0  0  0  0  0
   -0.3483    0.7658   -0.1625 C   0  0  0  0  0  0  0  0  0  0  0  0
    0.0011   -0.4452    0.4820 C   0  0  0  0  0  0  0  0  0  0  0  0
    1.2603   -0.6110    1.0649 O   0  0  0  0  0  0  0  0  0  0  0  0
    2.3990   -0.9527    0.2844 C   0  0  0  0  0  0  0  0  0  0  0  0
   -0.9172   -1.5049    0.5372 C   0  0  0  0  0  0  0  0  0  0  0  0
   -0.5009   -3.0075    1.3479 Cl  0  0  0  0  0  0  0  0  0  0  0  0
   -2.1689   -1.3805   -0.0659 C   0  0  0  0  0  0  0  0  0  0  0  0
   -2.5184   -0.1991   -0.7166 C   0  0  0  0  0  0  0  0  0  0  0  0
   -1.6246    0.8757   -0.7676 C   0  0  0  0  0  0  0  0  0  0  0  0
   -2.1822    2.3575   -1.5416 Cl  0  0  0  0  0  0  0  0  0  0  0  0
  1  2  2  0
  2  4  1  0
  2  3  1  0
  4  5  2  0
  4 12  1  0
  5  8  1  0
  5  6  1  0
  6  7  1  0
  8 10  2  0
  8  9  1  0
 10 11  1  0
 11 12  2  0
 12 13  1  0
M  END
$$$$
