O=C(c(nc(Cl)c(Cl)c1N)c1Cl)O
     RDKit          3D

 13 13  0  0  0  0  0  0  0  0999 V2000
    3.1886   -0.6017   -0.3517 O   0  0  0  0  0  0  0  0  0  0  0  0
    2.5012    0.3129    0.1740 C   0  0  0  0  0  0  0  0  0  0  0  0
    1.0188    0.2857    0.1616 C   0  0  0  0  0  0  0  0  0  0  0  0
    0.3819    1.3263    0.7596 N   0  0  0  0  0  0  0  0  0  0  0  0
   -0.9670    1.4312    0.8227 C   0  0  0  0  0  0  0  0  0  0  0  0
   -1.6597    2.8315    1.6271 Cl  0  0  0  0  0  0  0  0  0  0  0  0
   -1.7741    0.4381    0.2550 C   0  0  0  0  0  0  0  0  0  0  0  0
   -3.5311    0.5897    0.3458 Cl  0  0  0  0  0  0  0  0  0  0  0  0
   -1.1658   -0.6653   -0.3789 C   0  0  0  0  0  0  0  0  0  0  0  0
   -1.9792   -1.6956   -0.9679 N   0  0  0  0  0  0  0  0  0  0  0  0
    0.2466   -0.7472   -0.4289 C   0  0  0  0  0  0  0  0  0  0  0  0
    1.0098   -2.1312   -1.2241 Cl  0  0  0  0  0  0  0  0  0  0  0  0
    3.1533    1.3809    0.7847 O   0  0  0  0  0  0  0  0  0  0  0  0
  1  2  2  0
  2  3  1  0
  2 13  1  0
  3 11  2  0
  3  4  1  0
  4  5  2  0
  5  7  1  0
  5  6  1  0
  7  9  2  0
  7  8  1  0
  9 11  1  0
  9 10  1  0
 11 12  1  0
M  END
$$$$
