Clc1nc(C(Cl)(Cl)Cl)ccc1
     RDKit          3D

 11 11  0  0  0  0  0  0  0  0999 V2000
   -2.1422    2.8363    0.4945 Cl  0  0  0  0  0  0  0  0  0  0  0  0
   -1.3286    1.3102    0.2156 C   0  0  0  0  0  0  0  0  0  0  0  0
    0.0294    1.2537    0.2555 N   0  0  0  0  0  0  0  0  0  0  0  0
    0.7150    0.0935    0.0460 C   0  0  0  0  0  0  0  0  0  0  0  0
    2.2252    0.0774    0.0998 C   0  0  0  0  0  0  0  0  0  0  0  0
    2.7777   -1.0386    1.3760 Cl  0  0  0  0  0  0  0  0  0  0  0  0
    2.8851   -0.4618   -1.4665 Cl  0  0  0  0  0  0  0  0  0  0  0  0
    2.9011    1.6939    0.4533 Cl  0  0  0  0  0  0  0  0  0  0  0  0
   -0.0026   -1.0857   -0.2204 C   0  0  0  0  0  0  0  0  0  0  0  0
   -1.3975   -1.0484   -0.2655 C   0  0  0  0  0  0  0  0  0  0  0  0
   -2.0684    0.1550   -0.0467 C   0  0  0  0  0  0  0  0  0  0  0  0
  1  2  1  0
  2 11  2  0
  2  3  1  0
  3  4  2  0
  4  9  1  0
  4  5  1  0
  5  6  1  0
  5  7  1  0
  5  8  1  0
  9 10  2  0
 10 11  1  0
M  END
$$$$
