
     RDKit          3D

 17 18  0  0  1  0  0  0  0  0999 V2000
    0.9582    1.2325   -0.3530 O   0  0  0  0  0  0  0  0  0  0  0  0
    0.9071   -0.0252   -0.2705 C   0  0  0  0  0  0  0  0  0  0  0  0
    2.0889   -0.8145   -0.4752 N   0  0  0  0  0  0  0  0  0  0  0  0
    3.4208   -0.2751   -0.5307 C   0  0  0  0  0  0  0  0  0  0  0  0
    3.8059    0.8169    0.2698 C   0  0  0  0  0  0  0  0  0  0  0  0
    5.1152    1.3054    0.2134 C   0  0  0  0  0  0  0  0  0  0  0  0
    6.0527    0.7028   -0.6292 C   0  0  0  0  0  0  0  0  0  0  0  0
    5.6851   -0.3957   -1.4102 C   0  0  0  0  0  0  0  0  0  0  0  0
    4.3773   -0.8877   -1.3559 C   0  0  0  0  0  0  0  0  0  0  0  0
   -0.3439   -0.6778   -0.0138 N   0  0  0  0  0  0  0  0  0  0  0  0
   -1.6060    0.0593    0.1121 C   0  0  1  0  0  0  0  0  0  0  0  0
   -2.2264    0.2526   -1.2942 C   0  0  0  0  0  0  0  0  0  0  0  0
   -3.7640    0.3440   -1.2876 C   0  0  0  0  0  0  0  0  0  0  0  0
   -4.2831    0.9708    0.0067 C   0  0  0  0  0  0  0  0  0  0  0  0
   -3.9008    0.1297    1.2402 C   0  0  0  0  0  0  0  0  0  0  0  0
   -2.5828   -0.6722    1.0672 C   0  0  2  0  0  0  0  0  0  0  0  0
   -1.9456   -0.9392    2.4401 C   0  0  0  0  0  0  0  0  0  0  0  0
  1  2  2  0
  2 10  1  0
  2  3  1  0
  3  4  1  0
  4  9  1  0
  4  5  2  0
  5  6  1  0
  6  7  2  0
  7  8  1  0
  8  9  2  0
 11 10  1  6
 11 12  1  0
 11 16  1  0
 12 13  1  0
 13 14  1  0
 14 15  1  0
 15 16  1  0
 16 17  1  1
M  END
$$$$
