Clc1cc(Cl)c(Cl)c2nsnc12
     RDKit          3D

 12 13  0  0  0  0  0  0  0  0999 V2000
    0.2109    3.1899   -0.2806 Cl  0  0  0  0  0  0  0  0  0  0  0  0
   -0.0336    1.4562   -0.1317 C   0  0  0  0  0  0  0  0  0  0  0  0
   -1.3340    0.9341   -0.1207 C   0  0  0  0  0  0  0  0  0  0  0  0
   -1.5551   -0.4491   -0.0026 C   0  0  0  0  0  0  0  0  0  0  0  0
   -3.2112   -1.0406    0.0049 Cl  0  0  0  0  0  0  0  0  0  0  0  0
   -0.4668   -1.3375    0.1072 C   0  0  0  0  0  0  0  0  0  0  0  0
   -0.7239   -3.0740    0.2561 Cl  0  0  0  0  0  0  0  0  0  0  0  0
    0.8341   -0.8203    0.0967 C   0  0  0  0  0  0  0  0  0  0  0  0
    1.9408   -1.6005    0.1972 N   0  0  0  0  0  0  0  0  0  0  0  0
    3.1238   -0.4476    0.1263 S   0  0  0  0  0  0  0  0  0  0  0  0
    2.3426    1.0015   -0.0253 N   0  0  0  0  0  0  0  0  0  0  0  0
    1.0515    0.5820   -0.0233 C   0  0  0  0  0  0  0  0  0  0  0  0
  1  2  1  0
  2  3  2  0
  2 12  1  0
  3  4  1  0
  4  6  2  0
  4  5  1  0
  6  8  1  0
  6  7  1  0
  8  9  2  0
  8 12  1  0
  9 10  1  0
 10 11  1  0
 11 12  2  0
M  END
$$$$
