Clc1cccc(c2ccccc2)c1
     RDKit          3D

 13 14  0  0  0  0  0  0  0  0999 V2000
   -3.5349    1.8328   -2.3029 Cl  0  0  0  0  0  0  0  0  0  0  0  0
   -2.7569    0.8903   -1.0444 C   0  0  0  0  0  0  0  0  0  0  0  0
   -3.5312    0.2443   -0.0765 C   0  0  0  0  0  0  0  0  0  0  0  0
   -2.9127   -0.5024    0.9284 C   0  0  0  0  0  0  0  0  0  0  0  0
   -1.5192   -0.6060    0.9698 C   0  0  0  0  0  0  0  0  0  0  0  0
   -0.7271    0.0387    0.0011 C   0  0  0  0  0  0  0  0  0  0  0  0
    0.7537   -0.0706    0.0422 C   0  0  0  0  0  0  0  0  0  0  0  0
    1.4420   -0.0127    1.2692 C   0  0  0  0  0  0  0  0  0  0  0  0
    2.8361   -0.1153    1.3049 C   0  0  0  0  0  0  0  0  0  0  0  0
    3.5576   -0.2774    0.1202 C   0  0  0  0  0  0  0  0  0  0  0  0
    2.8867   -0.3369   -1.1032 C   0  0  0  0  0  0  0  0  0  0  0  0
    1.4928   -0.2339   -1.1450 C   0  0  0  0  0  0  0  0  0  0  0  0
   -1.3616    0.7887   -1.0075 C   0  0  0  0  0  0  0  0  0  0  0  0
  1  2  1  0
  2  3  2  0
  2 13  1  0
  3  4  1  0
  4  5  2  0
  5  6  1  0
  6  7  1  0
  6 13  2  0
  7 12  1  0
  7  8  2  0
  8  9  1  0
  9 10  2  0
 10 11  1  0
 11 12  2  0
M  END
$$$$
