c24c(cccc4)c1cccc3c1c2ccc3
     RDKit          3D

 16 19  0  0  0  0  0  0  0  0999 V2000
    1.3050    0.5839    0.1504 C   0  0  0  0  0  0  0  0  0  0  0  0
    1.1933   -0.8000    0.0524 C   0  0  0  0  0  0  0  0  0  0  0  0
    2.3150   -1.6244    0.0970 C   0  0  0  0  0  0  0  0  0  0  0  0
    3.5747   -1.0163    0.2450 C   0  0  0  0  0  0  0  0  0  0  0  0
    3.6880    0.3882    0.3445 C   0  0  0  0  0  0  0  0  0  0  0  0
    2.5434    1.2042    0.2973 C   0  0  0  0  0  0  0  0  0  0  0  0
   -0.2281   -1.1204   -0.0913 C   0  0  0  0  0  0  0  0  0  0  0  0
   -0.9335   -2.3165   -0.2287 C   0  0  0  0  0  0  0  0  0  0  0  0
   -2.3419   -2.2436   -0.3462 C   0  0  0  0  0  0  0  0  0  0  0  0
   -3.0111   -0.9916   -0.3243 C   0  0  0  0  0  0  0  0  0  0  0  0
   -2.2668    0.1960   -0.1840 C   0  0  0  0  0  0  0  0  0  0  0  0
   -0.8917    0.0771   -0.0724 C   0  0  0  0  0  0  0  0  0  0  0  0
   -0.0453    1.1440    0.0691 C   0  0  0  0  0  0  0  0  0  0  0  0
   -0.5491    2.4447    0.1084 C   0  0  0  0  0  0  0  0  0  0  0  0
   -1.9497    2.6147   -0.0022 C   0  0  0  0  0  0  0  0  0  0  0  0
   -2.8103    1.4950   -0.1482 C   0  0  0  0  0  0  0  0  0  0  0  0
  1 13  1  0
  1  2  1  0
  1  6  2  0
  2  3  2  0
  2  7  1  0
  3  4  1  0
  4  5  2  0
  5  6  1  0
  7 12  2  0
  7  8  1  0
  8  9  2  0
  9 10  1  0
 10 11  2  0
 11 12  1  0
 11 16  1  0
 12 13  1  0
 13 14  2  0
 14 15  1  0
 15 16  2  0
M  END
$$$$
