c12c3c4c(cc(cccc5)c5c4)c1cccc2ccc3
     RDKit          3D

 20 24  0  0  0  0  0  0  0  0999 V2000
   -2.0392   -0.0690    0.0583 C   0  0  0  0  0  0  0  0  0  0  0  0
   -1.2583    0.2547    1.1348 C   0  0  0  0  0  0  0  0  0  0  0  0
    0.1278    0.1859    0.6678 C   0  0  0  0  0  0  0  0  0  0  0  0
    0.1018   -0.1782   -0.6743 C   0  0  0  0  0  0  0  0  0  0  0  0
    1.2716   -0.3293   -1.4128 C   0  0  0  0  0  0  0  0  0  0  0  0
    2.5025   -0.1021   -0.7621 C   0  0  0  0  0  0  0  0  0  0  0  0
    3.7101   -0.2414   -1.4624 C   0  0  0  0  0  0  0  0  0  0  0  0
    4.9282   -0.0157   -0.8154 C   0  0  0  0  0  0  0  0  0  0  0  0
    4.9544    0.3501    0.5330 C   0  0  0  0  0  0  0  0  0  0  0  0
    3.7627    0.4942    1.2489 C   0  0  0  0  0  0  0  0  0  0  0  0
    2.5293    0.2724    0.6183 C   0  0  0  0  0  0  0  0  0  0  0  0
    1.3249    0.4171    1.3386 C   0  0  0  0  0  0  0  0  0  0  0  0
   -1.3008   -0.3412   -1.0617 C   0  0  0  0  0  0  0  0  0  0  0  0
   -1.9324   -0.6905   -2.2560 C   0  0  0  0  0  0  0  0  0  0  0  0
   -3.3463   -0.7512   -2.2631 C   0  0  0  0  0  0  0  0  0  0  0  0
   -4.0936   -0.4651   -1.0903 C   0  0  0  0  0  0  0  0  0  0  0  0
   -3.4226   -0.1158    0.0978 C   0  0  0  0  0  0  0  0  0  0  0  0
   -4.0468    0.1896    1.3229 C   0  0  0  0  0  0  0  0  0  0  0  0
   -3.2549    0.5279    2.4517 C   0  0  0  0  0  0  0  0  0  0  0  0
   -1.8429    0.5628    2.3639 C   0  0  0  0  0  0  0  0  0  0  0  0
  1 13  2  0
  1  2  1  0
  1 17  1  0
  2 20  2  0
  2  3  1  0
  3  4  1  0
  3 12  2  0
  4 13  1  0
  4  5  2  0
  5  6  1  0
  6  7  2  0
  6 11  1  0
  7  8  1  0
  8  9  2  0
  9 10  1  0
 10 11  2  0
 11 12  1  0
 13 14  1  0
 14 15  2  0
 15 16  1  0
 16 17  2  0
 17 18  1  0
 18 19  2  0
 19 20  1  0
M  END
$$$$
