NC(OCC(C)C)=O
     RDKit          3D

  8  7  0  0  0  0  0  0  0  0999 V2000
    3.4854    1.0345   -0.5430 N   0  0  0  0  0  0  0  0  0  0  0  0
    2.3791    0.2018   -0.8790 C   0  0  0  0  0  0  0  0  0  0  0  0
    1.2317    0.2256   -0.0819 O   0  0  0  0  0  0  0  0  0  0  0  0
    0.0870   -0.5772   -0.3578 C   0  0  0  0  0  0  0  0  0  0  0  0
   -1.0029   -0.3195    0.6936 C   0  0  0  0  0  0  0  0  0  0  0  0
   -2.1809   -1.2793    0.4898 C   0  0  0  0  0  0  0  0  0  0  0  0
   -1.4869    1.1356    0.6412 C   0  0  0  0  0  0  0  0  0  0  0  0
    2.4451   -0.5478   -1.8908 O   0  0  0  0  0  0  0  0  0  0  0  0
  1  2  1  0
  2  8  2  0
  2  3  1  0
  3  4  1  0
  4  5  1  0
  5  7  1  0
  5  6  1  0
M  END
$$$$
