O=C(NC1CCCCCCC1)N(C)C
     RDKit          3D

 14 14  0  0  0  0  0  0  0  0999 V2000
    1.8813    1.2710    1.0296 O   0  0  0  0  0  0  0  0  0  0  0  0
    2.2207    0.5274    0.0678 C   0  0  0  0  0  0  0  0  0  0  0  0
    1.2058   -0.1545   -0.6934 N   0  0  0  0  0  0  0  0  0  0  0  0
   -0.2253   -0.0454   -0.3820 C   0  0  0  0  0  0  0  0  0  0  0  0
   -0.8260    1.1015   -1.2244 C   0  0  0  0  0  0  0  0  0  0  0  0
   -2.3639    1.2244   -1.2271 C   0  0  0  0  0  0  0  0  0  0  0  0
   -3.0269    1.1600    0.1612 C   0  0  0  0  0  0  0  0  0  0  0  0
   -3.5312   -0.2501    0.5488 C   0  0  0  0  0  0  0  0  0  0  0  0
   -2.5369   -1.0540    1.4062 C   0  0  0  0  0  0  0  0  0  0  0  0
   -1.6104   -2.0004    0.6159 C   0  0  0  0  0  0  0  0  0  0  0  0
   -0.9243   -1.4104   -0.6300 C   0  0  0  0  0  0  0  0  0  0  0  0
    3.6214    0.3762   -0.2507 N   0  0  0  0  0  0  0  0  0  0  0  0
    4.0582   -0.5427   -1.3066 C   0  0  0  0  0  0  0  0  0  0  0  0
    4.6131    1.1381    0.5157 C   0  0  0  0  0  0  0  0  0  0  0  0
  1  2  2  0
  2  3  1  0
  2 12  1  0
  3  4  1  0
  4  5  1  0
  4 11  1  0
  5  6  1  0
  6  7  1  0
  7  8  1  0
  8  9  1  0
  9 10  1  0
 10 11  1  0
 12 13  1  0
 12 14  1  0
M  END
$$$$
