c1(cccc3)c3c(cccc4)c4c2c1cccc2
     RDKit          3D

 18 21  0  0  0  0  0  0  0  0999 V2000
   -0.3354   -1.3871   -0.0323 C   0  0  0  0  0  0  0  0  0  0  0  0
   -0.7113   -2.7570   -0.1109 C   0  0  0  0  0  0  0  0  0  0  0  0
   -2.0453   -3.1464   -0.1095 C   0  0  0  0  0  0  0  0  0  0  0  0
   -3.0454   -2.1955   -0.0315 C   0  0  0  0  0  0  0  0  0  0  0  0
   -2.7212   -0.8449    0.0158 C   0  0  0  0  0  0  0  0  0  0  0  0
   -1.3696   -0.4020   -0.0149 C   0  0  0  0  0  0  0  0  0  0  0  0
   -1.0335    0.9846   -0.0131 C   0  0  0  0  0  0  0  0  0  0  0  0
   -2.0313    1.9970   -0.0712 C   0  0  0  0  0  0  0  0  0  0  0  0
   -1.7020    3.3463   -0.0239 C   0  0  0  0  0  0  0  0  0  0  0  0
   -0.3796    3.7343    0.0812 C   0  0  0  0  0  0  0  0  0  0  0  0
    0.6277    2.7773    0.1098 C   0  0  0  0  0  0  0  0  0  0  0  0
    0.3363    1.3869    0.0323 C   0  0  0  0  0  0  0  0  0  0  0  0
    1.3693    0.4030    0.0149 C   0  0  0  0  0  0  0  0  0  0  0  0
    1.0328   -0.9853    0.0131 C   0  0  0  0  0  0  0  0  0  0  0  0
    2.0906   -1.9348    0.0728 C   0  0  0  0  0  0  0  0  0  0  0  0
    3.4231   -1.5403    0.0716 C   0  0  0  0  0  0  0  0  0  0  0  0
    3.7491   -0.1984    0.0121 C   0  0  0  0  0  0  0  0  0  0  0  0
    2.7455    0.7625   -0.0164 C   0  0  0  0  0  0  0  0  0  0  0  0
  1 14  1  0
  1  6  1  0
  1  2  2  0
  2  3  1  0
  3  4  2  0
  4  5  1  0
  5  6  2  0
  6  7  1  0
  7 12  2  0
  7  8  1  0
  8  9  2  0
  9 10  1  0
 10 11  2  0
 11 12  1  0
 12 13  1  0
 13 14  2  0
 13 18  1  0
 14 15  1  0
 15 16  2  0
 16 17  1  0
 17 18  2  0
M  END
$$$$
