c12c(ccc3c2ccc4c3cccc4)cccc1
     RDKit          3D

 18 21  0  0  0  0  0  0  0  0999 V2000
   -1.8606   -0.3578   -0.1018 C   0  0  0  0  0  0  0  0  0  0  0  0
   -2.3693    0.9609    0.0399 C   0  0  0  0  0  0  0  0  0  0  0  0
   -1.4973    2.0394    0.1613 C   0  0  0  0  0  0  0  0  0  0  0  0
   -0.1234    1.8487    0.1464 C   0  0  0  0  0  0  0  0  0  0  0  0
    0.4415    0.5613    0.0083 C   0  0  0  0  0  0  0  0  0  0  0  0
   -0.4415   -0.5613   -0.1179 C   0  0  0  0  0  0  0  0  0  0  0  0
    0.1234   -1.8487   -0.2560 C   0  0  0  0  0  0  0  0  0  0  0  0
    1.4973   -2.0394   -0.2709 C   0  0  0  0  0  0  0  0  0  0  0  0
    2.3693   -0.9609   -0.1495 C   0  0  0  0  0  0  0  0  0  0  0  0
    1.8606    0.3578   -0.0078 C   0  0  0  0  0  0  0  0  0  0  0  0
    2.8015    1.4147    0.1115 C   0  0  0  0  0  0  0  0  0  0  0  0
    4.1753    1.1623    0.0898 C   0  0  0  0  0  0  0  0  0  0  0  0
    4.6504   -0.1373   -0.0499 C   0  0  0  0  0  0  0  0  0  0  0  0
    3.7543   -1.1955   -0.1692 C   0  0  0  0  0  0  0  0  0  0  0  0
   -3.7543    1.1955    0.0596 C   0  0  0  0  0  0  0  0  0  0  0  0
   -4.6504    0.1373   -0.0597 C   0  0  0  0  0  0  0  0  0  0  0  0
   -4.1753   -1.1623   -0.1994 C   0  0  0  0  0  0  0  0  0  0  0  0
   -2.8015   -1.4147   -0.2211 C   0  0  0  0  0  0  0  0  0  0  0  0
  1  6  2  0
  1  2  1  0
  1 18  1  0
  2 15  1  0
  2  3  2  0
  3  4  1  0
  4  5  2  0
  5  6  1  0
  5 10  1  0
  6  7  1  0
  7  8  2  0
  8  9  1  0
  9 10  2  0
  9 14  1  0
 10 11  1  0
 11 12  2  0
 12 13  1  0
 13 14  2  0
 15 16  2  0
 16 17  1  0
 17 18  2  0
M  END
$$$$
