COc1ccc2c(ccc(C(C)C(O)=O)c2)c1
     RDKit          3D

 17 18  0  0  1  0  0  0  0  0999 V2000
    5.5553    0.7156    0.0707 C   0  0  0  0  0  0  0  0  0  0  0  0
    4.3933    1.0261   -0.6914 O   0  0  0  0  0  0  0  0  0  0  0  0
    3.0917    0.6305   -0.3487 C   0  0  0  0  0  0  0  0  0  0  0  0
    2.8131   -0.1261    0.8057 C   0  0  0  0  0  0  0  0  0  0  0  0
    1.5004   -0.4982    1.1081 C   0  0  0  0  0  0  0  0  0  0  0  0
    0.4464   -0.1211    0.2639 C   0  0  0  0  0  0  0  0  0  0  0  0
    0.7189    0.6384   -0.8969 C   0  0  0  0  0  0  0  0  0  0  0  0
   -0.3340    1.0142   -1.7425 C   0  0  0  0  0  0  0  0  0  0  0  0
   -1.6466    0.6427   -1.4407 C   0  0  0  0  0  0  0  0  0  0  0  0
   -1.9310   -0.1068   -0.2867 C   0  0  0  0  0  0  0  0  0  0  0  0
   -3.3577   -0.5135    0.0215 C   0  0  1  0  0  0  0  0  0  0  0  0
   -3.5322   -2.0288   -0.1555 C   0  0  0  0  0  0  0  0  0  0  0  0
   -3.7574   -0.0367    1.3986 C   0  0  0  0  0  0  0  0  0  0  0  0
   -3.8086    1.3268    1.6746 O   0  0  0  0  0  0  0  0  0  0  0  0
   -4.0457   -0.8568    2.3112 O   0  0  0  0  0  0  0  0  0  0  0  0
   -0.8742   -0.4904    0.5602 C   0  0  0  0  0  0  0  0  0  0  0  0
    2.0401    1.0073   -1.1926 C   0  0  0  0  0  0  0  0  0  0  0  0
  1  2  1  0
  2  3  1  0
  3  4  2  0
  3 17  1  0
  4  5  1  0
  5  6  2  0
  6 16  1  0
  6  7  1  0
  7  8  1  0
  7 17  2  0
  8  9  2  0
  9 10  1  0
 10 16  2  0
 11 10  1  1
 11 12  1  0
 11 13  1  0
 13 14  1  0
 13 15  2  0
M  END
$$$$
