NC(CC)Cc2c[nH]c1ccccc12
     RDKit          3D

 14 15  0  0  1  0  0  0  0  0999 V2000
   -2.1896   -1.0688    1.4971 N   0  0  0  0  0  0  0  0  0  0  0  0
   -2.0517   -0.6349    0.1023 C   0  0  1  0  0  0  0  0  0  0  0  0
   -3.3420    0.0430   -0.4239 C   0  0  0  0  0  0  0  0  0  0  0  0
   -3.7416    1.3227    0.3154 C   0  0  0  0  0  0  0  0  0  0  0  0
   -0.8061    0.2620   -0.0696 C   0  0  0  0  0  0  0  0  0  0  0  0
    0.5033   -0.4510    0.1634 C   0  0  0  0  0  0  0  0  0  0  0  0
    0.7297   -1.7929    0.4810 C   0  0  0  0  0  0  0  0  0  0  0  0
    2.0549   -2.0347    0.6024 N   0  0  0  0  0  0  0  0  0  0  0  0
    2.6701   -0.8645    0.3648 C   0  0  0  0  0  0  0  0  0  0  0  0
    4.0416   -0.6135    0.3743 C   0  0  0  0  0  0  0  0  0  0  0  0
    4.4720    0.6964    0.0943 C   0  0  0  0  0  0  0  0  0  0  0  0
    3.5328    1.7137   -0.1858 C   0  0  0  0  0  0  0  0  0  0  0  0
    2.1548    1.4304   -0.1883 C   0  0  0  0  0  0  0  0  0  0  0  0
    1.7583    0.1224    0.0932 C   0  0  0  0  0  0  0  0  0  0  0  0
  2  1  1  1
  2  3  1  0
  2  5  1  0
  3  4  1  0
  5  6  1  0
  6 14  1  0
  6  7  2  0
  7  8  1  0
  8  9  1  0
  9 10  1  0
  9 14  2  0
 10 11  2  0
 11 12  1  0
 12 13  2  0
 13 14  1  0
M  END
$$$$
