c12c(cccc3)c3ncc1cccc2
     RDKit          3D

 14 16  0  0  0  0  0  0  0  0999 V2000
    0.6560   -0.2475   -0.0345 C   0  0  0  0  0  0  0  0  0  0  0  0
   -0.7671   -0.2179    0.0398 C   0  0  0  0  0  0  0  0  0  0  0  0
   -1.5729   -1.3814    0.0804 C   0  0  0  0  0  0  0  0  0  0  0  0
   -2.9653   -1.2819    0.1532 C   0  0  0  0  0  0  0  0  0  0  0  0
   -3.5825   -0.0328    0.1868 C   0  0  0  0  0  0  0  0  0  0  0  0
   -2.8111    1.1273    0.1479 C   0  0  0  0  0  0  0  0  0  0  0  0
   -1.4157    1.0458    0.0750 C   0  0  0  0  0  0  0  0  0  0  0  0
   -0.6912    2.1927    0.0386 N   0  0  0  0  0  0  0  0  0  0  0  0
    0.6611    2.1912   -0.0319 C   0  0  0  0  0  0  0  0  0  0  0  0
    1.3652    0.9839   -0.0701 C   0  0  0  0  0  0  0  0  0  0  0  0
    2.7669    0.9960   -0.1432 C   0  0  0  0  0  0  0  0  0  0  0  0
    3.4789   -0.2013   -0.1817 C   0  0  0  0  0  0  0  0  0  0  0  0
    2.8008   -1.4176   -0.1477 C   0  0  0  0  0  0  0  0  0  0  0  0
    1.4056   -1.4482   -0.0750 C   0  0  0  0  0  0  0  0  0  0  0  0
  1  2  1  0
  1 10  2  0
  1 14  1  0
  2  3  2  0
  2  7  1  0
  3  4  1  0
  4  5  2  0
  5  6  1  0
  6  7  2  0
  7  8  1  0
  8  9  2  0
  9 10  1  0
 10 11  1  0
 11 12  2  0
 12 13  1  0
 13 14  2  0
M  END
$$$$
