O=C(SCC(Cl)=CCl)N(C(C)C)C(C)C
     RDKit          3D

 15 14  0  0  0  0  0  0  0  0999 V2000
    0.9650    0.9509    1.0998 O   0  0  0  0  0  0  0  0  0  0  0  0
    0.4480    0.4972    0.0451 C   0  0  0  0  0  0  0  0  0  0  0  0
    1.4542    0.3460   -1.4371 S   0  0  0  0  0  0  0  0  0  0  0  0
    2.4733   -1.0560   -0.8505 C   0  0  0  0  0  0  0  0  0  0  0  0
    3.5015   -0.6016    0.1498 C   0  0  0  0  0  0  0  0  0  0  0  0
    3.4190   -1.2423    1.7917 Cl  0  0  0  0  0  0  0  0  0  0  0  0
    4.4750    0.2497   -0.2118 C   0  0  0  0  0  0  0  0  0  0  0  0
    5.7074    0.8052    0.9157 Cl  0  0  0  0  0  0  0  0  0  0  0  0
   -0.9664    0.2260    0.0027 N   0  0  0  0  0  0  0  0  0  0  0  0
   -1.9124    1.3412   -0.2063 C   0  0  0  0  0  0  0  0  0  0  0  0
   -1.6265    2.0660   -1.5263 C   0  0  0  0  0  0  0  0  0  0  0  0
   -1.8793    2.3144    0.9766 C   0  0  0  0  0  0  0  0  0  0  0  0
   -1.4852   -1.1382    0.2271 C   0  0  0  0  0  0  0  0  0  0  0  0
   -0.8402   -1.7949    1.4541 C   0  0  0  0  0  0  0  0  0  0  0  0
   -1.3189   -1.9946   -1.0303 C   0  0  0  0  0  0  0  0  0  0  0  0
  1  2  2  0
  2  9  1  0
  2  3  1  0
  3  4  1  0
  4  5  1  0
  5  7  2  0
  5  6  1  0
  7  8  1  0
  9 10  1  0
  9 13  1  0
 10 12  1  0
 10 11  1  0
 13 15  1  0
 13 14  1  0
M  END
$$$$
