O=C(c1ccccc1)OCCC
     RDKit          3D

 12 12  0  0  0  0  0  0  0  0999 V2000
    0.1170   -2.0880   -0.2488 O   0  0  0  0  0  0  0  0  0  0  0  0
   -0.1094   -0.9423    0.2300 C   0  0  0  0  0  0  0  0  0  0  0  0
   -1.3801   -0.2488   -0.0744 C   0  0  0  0  0  0  0  0  0  0  0  0
   -1.6293    1.0356    0.4430 C   0  0  0  0  0  0  0  0  0  0  0  0
   -2.8289    1.6940    0.1547 C   0  0  0  0  0  0  0  0  0  0  0  0
   -3.7901    1.0794   -0.6510 C   0  0  0  0  0  0  0  0  0  0  0  0
   -3.5536   -0.1952   -1.1708 C   0  0  0  0  0  0  0  0  0  0  0  0
   -2.3557   -0.8583   -0.8860 C   0  0  0  0  0  0  0  0  0  0  0  0
    0.8392   -0.3256    1.0557 O   0  0  0  0  0  0  0  0  0  0  0  0
    2.1222   -0.8840    1.3363 C   0  0  0  0  0  0  0  0  0  0  0  0
    3.0635   -0.7413    0.1355 C   0  0  0  0  0  0  0  0  0  0  0  0
    3.2947    0.7224   -0.2333 C   0  0  0  0  0  0  0  0  0  0  0  0
  1  2  2  0
  2  3  1  0
  2  9  1  0
  3  8  2  0
  3  4  1  0
  4  5  2  0
  5  6  1  0
  6  7  2  0
  7  8  1  0
  9 10  1  0
 10 11  1  0
 11 12  1  0
M  END
$$$$
