O=C(CCl)N(c(c(CC)ccc1)c1CC)COCCCC
     RDKit          3D

 21 21  0  0  0  0  0  0  0  0999 V2000
   -0.0074   -1.5658   -3.1778 O   0  0  0  0  0  0  0  0  0  0  0  0
   -0.9308   -1.0711   -2.4741 C   0  0  0  0  0  0  0  0  0  0  0  0
   -2.3029   -0.8953   -3.0699 C   0  0  0  0  0  0  0  0  0  0  0  0
   -2.2833   -1.0067   -4.8522 Cl  0  0  0  0  0  0  0  0  0  0  0  0
   -0.6727   -0.7333   -1.0940 N   0  0  0  0  0  0  0  0  0  0  0  0
   -1.7460   -0.3098   -0.2330 C   0  0  0  0  0  0  0  0  0  0  0  0
   -2.5217   -1.2704    0.4617 C   0  0  0  0  0  0  0  0  0  0  0  0
   -2.2254   -2.7501    0.3753 C   0  0  0  0  0  0  0  0  0  0  0  0
   -1.3763   -3.2066    1.5577 C   0  0  0  0  0  0  0  0  0  0  0  0
   -3.5723   -0.8416    1.2879 C   0  0  0  0  0  0  0  0  0  0  0  0
   -3.8653    0.5145    1.4169 C   0  0  0  0  0  0  0  0  0  0  0  0
   -3.1113    1.4628    0.7290 C   0  0  0  0  0  0  0  0  0  0  0  0
   -2.0524    1.0671   -0.1030 C   0  0  0  0  0  0  0  0  0  0  0  0
   -1.2435    2.1332   -0.8042 C   0  0  0  0  0  0  0  0  0  0  0  0
   -0.2202    2.7474    0.1452 C   0  0  0  0  0  0  0  0  0  0  0  0
    0.6724   -0.8955   -0.5348 C   0  0  0  0  0  0  0  0  0  0  0  0
    1.5698   -0.0490   -1.2246 O   0  0  0  0  0  0  0  0  0  0  0  0
    2.8859   -0.1983   -0.7245 C   0  0  0  0  0  0  0  0  0  0  0  0
    3.1832    0.8808    0.3211 C   0  0  0  0  0  0  0  0  0  0  0  0
    4.6437    0.8193    0.7817 C   0  0  0  0  0  0  0  0  0  0  0  0
    4.9374    1.8950    1.8234 C   0  0  0  0  0  0  0  0  0  0  0  0
  1  2  2  0
  2  3  1  0
  2  5  1  0
  3  4  1  0
  5  6  1  0
  5 16  1  0
  6  7  2  0
  6 13  1  0
  7  8  1  0
  7 10  1  0
  8  9  1  0
 10 11  2  0
 11 12  1  0
 12 13  2  0
 13 14  1  0
 14 15  1  0
 16 17  1  0
 17 18  1  0
 18 19  1  0
 19 20  1  0
 20 21  1  0
M  END
$$$$
