OCC(C)(C)CCC
     RDKit          3D

  8  7  0  0  0  0  0  0  0  0999 V2000
   -1.2179    2.0959   -0.3939 O   0  0  0  0  0  0  0  0  0  0  0  0
   -1.2157    0.8657   -1.0671 C   0  0  0  0  0  0  0  0  0  0  0  0
   -0.8668   -0.2928   -0.0980 C   0  0  0  0  0  0  0  0  0  0  0  0
   -1.9977   -0.4299    0.9457 C   0  0  0  0  0  0  0  0  0  0  0  0
   -0.7891   -1.6128   -0.8965 C   0  0  0  0  0  0  0  0  0  0  0  0
    0.4698   -0.0322    0.6641 C   0  0  0  0  0  0  0  0  0  0  0  0
    1.7050    0.1786   -0.2320 C   0  0  0  0  0  0  0  0  0  0  0  0
    2.9587    0.4005    0.6102 C   0  0  0  0  0  0  0  0  0  0  0  0
  1  2  1  0
  2  3  1  0
  3  4  1  0
  3  5  1  0
  3  6  1  0
  6  7  1  0
  7  8  1  0
M  END
$$$$
