
     RDKit          3D

 17 20  0  0  0  0  0  0  0  0999 V2000
    0.2345   -0.3231   -0.1538 C   0  0  0  0  0  0  0  0  0  0  0  0
    1.6378   -0.3313   -0.1682 C   0  0  0  0  0  0  0  0  0  0  0  0
    2.3688   -1.4140   -0.6831 C   0  0  0  0  0  0  0  0  0  0  0  0
    3.7661   -1.3803   -0.6777 C   0  0  0  0  0  0  0  0  0  0  0  0
    4.4430   -0.2719   -0.1614 C   0  0  0  0  0  0  0  0  0  0  0  0
    3.7290    0.8135    0.3546 C   0  0  0  0  0  0  0  0  0  0  0  0
    2.3258    0.7977    0.3578 C   0  0  0  0  0  0  0  0  0  0  0  0
    1.5979    1.8913    0.8777 C   0  0  0  0  0  0  0  0  0  0  0  0
    0.1956    1.8756    0.8809 C   0  0  0  0  0  0  0  0  0  0  0  0
   -0.4577    0.7595    0.3608 C   0  0  0  0  0  0  0  0  0  0  0  0
   -1.8754    0.4925    0.2458 C   0  0  0  0  0  0  0  0  0  0  0  0
   -2.9696    1.2731    0.6213 C   0  0  0  0  0  0  0  0  0  0  0  0
   -4.2578    0.7634    0.3912 C   0  0  0  0  0  0  0  0  0  0  0  0
   -4.4268   -0.5031   -0.2033 C   0  0  0  0  0  0  0  0  0  0  0  0
   -3.3087   -1.2699   -0.5725 C   0  0  0  0  0  0  0  0  0  0  0  0
   -2.0350   -0.7496   -0.3373 C   0  0  0  0  0  0  0  0  0  0  0  0
   -0.7126   -1.3862   -0.6468 C   0  0  0  0  0  0  0  0  0  0  0  0
  1 17  1  0
  1  2  1  0
  1 10  2  0
  2  3  2  0
  2  7  1  0
  3  4  1  0
  4  5  2  0
  5  6  1  0
  6  7  2  0
  7  8  1  0
  8  9  2  0
  9 10  1  0
 10 11  1  0
 11 12  2  0
 11 16  1  0
 12 13  1  0
 13 14  2  0
 14 15  1  0
 15 16  2  0
 16 17  1  0
M  END
$$$$
