OC(=O)CC(C)(C(=O)O)C(C)(C)C(=O)O
     RDKit          3D

 15 14  0  0  1  0  0  0  0  0999 V2000
    2.7552   -1.0921   -1.9053 O   0  0  0  0  0  0  0  0  0  0  0  0
    2.1510    0.0979   -1.5058 C   0  0  0  0  0  0  0  0  0  0  0  0
    1.9327    0.9843   -2.3720 O   0  0  0  0  0  0  0  0  0  0  0  0
    1.8332    0.3465   -0.0507 C   0  0  0  0  0  0  0  0  0  0  0  0
    0.3322    0.6580    0.3355 C   0  0  1  0  0  0  0  0  0  0  0  0
    0.3449    0.7523    1.8898 C   0  0  0  0  0  0  0  0  0  0  0  0
   -0.0704    2.0583   -0.1598 C   0  0  0  0  0  0  0  0  0  0  0  0
    0.7187    2.7459   -0.8598 O   0  0  0  0  0  0  0  0  0  0  0  0
   -1.2871    2.6428    0.1928 O   0  0  0  0  0  0  0  0  0  0  0  0
   -0.7024   -0.4717   -0.1710 C   0  0  0  0  0  0  0  0  0  0  0  0
   -0.1710   -1.9060    0.0894 C   0  0  0  0  0  0  0  0  0  0  0  0
   -0.9813   -0.3707   -1.7000 C   0  0  0  0  0  0  0  0  0  0  0  0
   -2.0456   -0.3748    0.5568 C   0  0  0  0  0  0  0  0  0  0  0  0
   -3.0619    0.1100   -0.0144 O   0  0  0  0  0  0  0  0  0  0  0  0
   -2.1745   -0.8607    1.8570 O   0  0  0  0  0  0  0  0  0  0  0  0
  1  2  1  0
  2  4  1  0
  2  3  2  0
  5  4  1  6
  5  6  1  0
  5 10  1  0
  5  7  1  0
  7  9  1  0
  7  8  2  0
 10 11  1  0
 10 12  1  0
 10 13  1  0
 13 15  1  0
 13 14  2  0
M  END
$$$$
