c2(cc4)c([nH]c3c(cccc5)c5ccc23)c1c4cccc1
     RDKit          3D

 21 25  0  0  0  0  0  0  0  0999 V2000
   -0.7902   -0.0748    1.1786 C   0  0  0  0  0  0  0  0  0  0  0  0
   -1.7918   -0.2031    2.1370 C   0  0  0  0  0  0  0  0  0  0  0  0
   -3.1266   -0.1325    1.7079 C   0  0  0  0  0  0  0  0  0  0  0  0
   -1.0669    0.1168   -0.1603 C   0  0  0  0  0  0  0  0  0  0  0  0
    0.0750    0.2107   -0.8832 N   0  0  0  0  0  0  0  0  0  0  0  0
    1.0792    0.0761    0.0163 C   0  0  0  0  0  0  0  0  0  0  0  0
    2.4630    0.0997   -0.2224 C   0  0  0  0  0  0  0  0  0  0  0  0
    3.0091    0.2772   -1.5050 C   0  0  0  0  0  0  0  0  0  0  0  0
    4.3958    0.2917   -1.6788 C   0  0  0  0  0  0  0  0  0  0  0  0
    5.2470    0.1303   -0.5826 C   0  0  0  0  0  0  0  0  0  0  0  0
    4.7202   -0.0474    0.6996 C   0  0  0  0  0  0  0  0  0  0  0  0
    3.3310   -0.0650    0.8963 C   0  0  0  0  0  0  0  0  0  0  0  0
    2.7952   -0.2449    2.1949 C   0  0  0  0  0  0  0  0  0  0  0  0
    1.4065   -0.2637    2.4000 C   0  0  0  0  0  0  0  0  0  0  0  0
    0.5805   -0.1008    1.2913 C   0  0  0  0  0  0  0  0  0  0  0  0
   -2.3914    0.1918   -0.6217 C   0  0  0  0  0  0  0  0  0  0  0  0
   -3.4360    0.0634    0.3398 C   0  0  0  0  0  0  0  0  0  0  0  0
   -4.7728    0.1327   -0.0812 C   0  0  0  0  0  0  0  0  0  0  0  0
   -5.0759    0.3261   -1.4316 C   0  0  0  0  0  0  0  0  0  0  0  0
   -4.0517    0.4519   -2.3736 C   0  0  0  0  0  0  0  0  0  0  0  0
   -2.7135    0.3858   -1.9757 C   0  0  0  0  0  0  0  0  0  0  0  0
  1  4  1  0
  1 15  1  0
  1  2  2  0
  2  3  1  0
  3 17  2  0
  4 16  2  0
  4  5  1  0
  5  6  1  0
  6  7  1  0
  6 15  2  0
  7  8  2  0
  7 12  1  0
  8  9  1  0
  9 10  2  0
 10 11  1  0
 11 12  2  0
 12 13  1  0
 13 14  2  0
 14 15  1  0
 16 21  1  0
 16 17  1  0
 17 18  1  0
 18 19  2  0
 19 20  1  0
 20 21  2  0
M  END
$$$$
