Cc1nc(nccn2)c2cn1
     RDKit          3D

 11 12  0  0  0  0  0  0  0  0999 V2000
    3.2758    0.0884    0.2843 C   0  0  0  0  0  0  0  0  0  0  0  0
    1.8141   -0.1449    0.0947 C   0  0  0  0  0  0  0  0  0  0  0  0
    0.9113    0.7742    0.5357 N   0  0  0  0  0  0  0  0  0  0  0  0
   -0.4207    0.5723    0.3686 C   0  0  0  0  0  0  0  0  0  0  0  0
   -1.3209    1.4896    0.8087 N   0  0  0  0  0  0  0  0  0  0  0  0
   -2.6566    1.2917    0.6436 C   0  0  0  0  0  0  0  0  0  0  0  0
   -3.1112    0.1283    0.0121 C   0  0  0  0  0  0  0  0  0  0  0  0
   -2.2124   -0.7921   -0.4297 N   0  0  0  0  0  0  0  0  0  0  0  0
   -0.8782   -0.5942   -0.2646 C   0  0  0  0  0  0  0  0  0  0  0  0
    0.0603   -1.5235   -0.7093 C   0  0  0  0  0  0  0  0  0  0  0  0
    1.3847   -1.2813   -0.5214 N   0  0  0  0  0  0  0  0  0  0  0  0
  1  2  1  0
  2 11  2  0
  2  3  1  0
  3  4  2  0
  4  9  1  0
  4  5  1  0
  5  6  2  0
  6  7  1  0
  7  8  2  0
  8  9  1  0
  9 10  2  0
 10 11  1  0
M  END
$$$$
