O=C(O)CCCCCCCCCCN
     RDKit          3D

 14 13  0  0  0  0  0  0  0  0999 V2000
    5.8312   -1.5981   -2.0385 O   0  0  0  0  0  0  0  0  0  0  0  0
    5.6504   -1.2936   -0.8302 C   0  0  0  0  0  0  0  0  0  0  0  0
    6.7413   -0.9358   -0.0435 O   0  0  0  0  0  0  0  0  0  0  0  0
    4.2632   -1.2742   -0.2632 C   0  0  0  0  0  0  0  0  0  0  0  0
    3.6810    0.1411   -0.3201 C   0  0  0  0  0  0  0  0  0  0  0  0
    2.2624    0.1768    0.2610 C   0  0  0  0  0  0  0  0  0  0  0  0
    1.6758    1.5949    0.1922 C   0  0  0  0  0  0  0  0  0  0  0  0
    0.3102    1.7063    0.8888 C   0  0  0  0  0  0  0  0  0  0  0  0
   -0.8110    1.0000    0.1115 C   0  0  0  0  0  0  0  0  0  0  0  0
   -2.1746    1.2396    0.7772 C   0  0  0  0  0  0  0  0  0  0  0  0
   -3.3416    0.6522   -0.0325 C   0  0  0  0  0  0  0  0  0  0  0  0
   -3.3829   -0.8842    0.0173 C   0  0  0  0  0  0  0  0  0  0  0  0
   -4.6139   -1.4449   -0.7042 C   0  0  0  0  0  0  0  0  0  0  0  0
   -5.8416   -1.0753   -0.0049 N   0  0  0  0  0  0  0  0  0  0  0  0
  1  2  2  0
  2  4  1  0
  2  3  1  0
  4  5  1  0
  5  6  1  0
  6  7  1  0
  7  8  1  0
  8  9  1  0
  9 10  1  0
 10 11  1  0
 11 12  1  0
 12 13  1  0
 13 14  1  0
M  END
$$$$
