Clc(cc(Cl)cc2)c2c1ccc(Cl)cc1Cl
     RDKit          3D

 16 17  0  0  0  0  0  0  0  0999 V2000
   -0.6040   -1.0936    2.4740 Cl  0  0  0  0  0  0  0  0  0  0  0  0
   -1.4333   -0.3469    1.1122 C   0  0  0  0  0  0  0  0  0  0  0  0
   -2.8236   -0.1929    1.1774 C   0  0  0  0  0  0  0  0  0  0  0  0
   -3.5227    0.3706    0.1056 C   0  0  0  0  0  0  0  0  0  0  0  0
   -5.2643    0.5591    0.1957 Cl  0  0  0  0  0  0  0  0  0  0  0  0
   -2.8335    0.7815   -1.0385 C   0  0  0  0  0  0  0  0  0  0  0  0
   -1.4465    0.6316   -1.1123 C   0  0  0  0  0  0  0  0  0  0  0  0
   -0.7346    0.0667   -0.0415 C   0  0  0  0  0  0  0  0  0  0  0  0
    0.7346   -0.0665   -0.1391 C   0  0  0  0  0  0  0  0  0  0  0  0
    1.5528    0.7189    0.6893 C   0  0  0  0  0  0  0  0  0  0  0  0
    2.9440    0.6218    0.6059 C   0  0  0  0  0  0  0  0  0  0  0  0
    3.5315   -0.2587   -0.3063 C   0  0  0  0  0  0  0  0  0  0  0  0
    5.2785   -0.3794   -0.4086 Cl  0  0  0  0  0  0  0  0  0  0  0  0
    2.7261   -1.0450   -1.1359 C   0  0  0  0  0  0  0  0  0  0  0  0
    1.3308   -0.9543   -1.0592 C   0  0  0  0  0  0  0  0  0  0  0  0
    0.3612   -1.9908   -2.1010 Cl  0  0  0  0  0  0  0  0  0  0  0  0
  1  2  1  0
  2  3  2  0
  2  8  1  0
  3  4  1  0
  4  6  2  0
  4  5  1  0
  6  7  1  0
  7  8  2  0
  8  9  1  0
  9 10  2  0
  9 15  1  0
 10 11  1  0
 11 12  2  0
 12 14  1  0
 12 13  1  0
 14 15  2  0
 15 16  1  0
M  END
$$$$
