CC1=C(C(Nc2ccccc2)=O)CCCO1
     RDKit          3D

 16 17  0  0  0  0  0  0  0  0999 V2000
   -2.0868    1.4323   -2.3367 C   0  0  0  0  0  0  0  0  0  0  0  0
   -2.4187    0.8048   -1.0135 C   0  0  0  0  0  0  0  0  0  0  0  0
   -1.4718    0.3265   -0.1670 C   0  0  0  0  0  0  0  0  0  0  0  0
   -0.0144    0.3763   -0.4634 C   0  0  0  0  0  0  0  0  0  0  0  0
    0.8457   -0.6844   -0.0138 N   0  0  0  0  0  0  0  0  0  0  0  0
    2.2787   -0.5841    0.0510 C   0  0  0  0  0  0  0  0  0  0  0  0
    2.9161    0.6285    0.3750 C   0  0  0  0  0  0  0  0  0  0  0  0
    4.3108    0.6924    0.4556 C   0  0  0  0  0  0  0  0  0  0  0  0
    5.0794   -0.4518    0.2273 C   0  0  0  0  0  0  0  0  0  0  0  0
    4.4541   -1.6644   -0.0732 C   0  0  0  0  0  0  0  0  0  0  0  0
    3.0598   -1.7327   -0.1538 C   0  0  0  0  0  0  0  0  0  0  0  0
    0.4706    1.3440   -1.1099 O   0  0  0  0  0  0  0  0  0  0  0  0
   -1.9110   -0.3825    1.0925 C   0  0  0  0  0  0  0  0  0  0  0  0
   -3.2056    0.2139    1.6384 C   0  0  0  0  0  0  0  0  0  0  0  0
   -4.2808    0.1975    0.5539 C   0  0  0  0  0  0  0  0  0  0  0  0
   -3.7815    0.7090   -0.6841 O   0  0  0  0  0  0  0  0  0  0  0  0
  1  2  1  0
  2  3  2  0
  2 16  1  0
  3 13  1  0
  3  4  1  0
  4  5  1  0
  4 12  2  0
  5  6  1  0
  6 11  1  0
  6  7  2  0
  7  8  1  0
  8  9  2  0
  9 10  1  0
 10 11  2  0
 13 14  1  0
 14 15  1  0
 15 16  1  0
M  END
$$$$
