Oc1c(Cl)c(Cl)c(Cl)c(Cl)c1OC
     RDKit          3D

 13 13  0  0  0  0  0  0  0  0999 V2000
   -0.7176    1.6367    0.9633 O   0  0  0  0  0  0  0  0  0  0  0  0
    0.1368    0.6752    0.4195 C   0  0  0  0  0  0  0  0  0  0  0  0
    1.5347    0.8022    0.5685 C   0  0  0  0  0  0  0  0  0  0  0  0
    2.2195    2.1756    1.4426 Cl  0  0  0  0  0  0  0  0  0  0  0  0
    2.3944   -0.1653    0.0213 C   0  0  0  0  0  0  0  0  0  0  0  0
    4.1431   -0.0040    0.2092 Cl  0  0  0  0  0  0  0  0  0  0  0  0
    1.8643   -1.2616   -0.6756 C   0  0  0  0  0  0  0  0  0  0  0  0
    2.9431   -2.4782   -1.3638 Cl  0  0  0  0  0  0  0  0  0  0  0  0
    0.4749   -1.3910   -0.8256 C   0  0  0  0  0  0  0  0  0  0  0  0
   -0.1989   -2.7671   -1.7008 Cl  0  0  0  0  0  0  0  0  0  0  0  0
   -0.3976   -0.4328   -0.2847 C   0  0  0  0  0  0  0  0  0  0  0  0
   -1.7773   -0.6398   -0.4817 O   0  0  0  0  0  0  0  0  0  0  0  0
   -2.8366    0.1944   -0.0261 C   0  0  0  0  0  0  0  0  0  0  0  0
  1  2  1  0
  2 11  2  0
  2  3  1  0
  3  5  2  0
  3  4  1  0
  5  7  1  0
  5  6  1  0
  7  9  2  0
  7  8  1  0
  9 11  1  0
  9 10  1  0
 11 12  1  0
 12 13  1  0
M  END
$$$$
