c12ccccc1nc3c(cccc3)c2
     RDKit          3D

 14 16  0  0  0  0  0  0  0  0999 V2000
   -1.1828   -0.6698   -0.2035 C   0  0  0  0  0  0  0  0  0  0  0  0
   -2.3825   -1.3883   -0.3192 C   0  0  0  0  0  0  0  0  0  0  0  0
   -3.5841   -0.8162    0.1112 C   0  0  0  0  0  0  0  0  0  0  0  0
   -3.5951    0.4712    0.6573 C   0  0  0  0  0  0  0  0  0  0  0  0
   -2.4045    1.1949    0.7766 C   0  0  0  0  0  0  0  0  0  0  0  0
   -1.1966    0.6317    0.3491 C   0  0  0  0  0  0  0  0  0  0  0  0
   -0.0384    1.3349    0.4648 N   0  0  0  0  0  0  0  0  0  0  0  0
    1.1548    0.8224    0.0609 C   0  0  0  0  0  0  0  0  0  0  0  0
    1.2157   -0.4753   -0.4974 C   0  0  0  0  0  0  0  0  0  0  0  0
    2.4510   -0.9963   -0.9114 C   0  0  0  0  0  0  0  0  0  0  0  0
    3.6143   -0.2325   -0.7708 C   0  0  0  0  0  0  0  0  0  0  0  0
    3.5514    1.0508   -0.2183 C   0  0  0  0  0  0  0  0  0  0  0  0
    2.3248    1.5784    0.1972 C   0  0  0  0  0  0  0  0  0  0  0  0
    0.0350   -1.2184   -0.6265 C   0  0  0  0  0  0  0  0  0  0  0  0
  1  6  1  0
  1 14  1  0
  1  2  2  0
  2  3  1  0
  3  4  2  0
  4  5  1  0
  5  6  2  0
  6  7  1  0
  7  8  2  0
  8 13  1  0
  8  9  1  0
  9 10  1  0
  9 14  2  0
 10 11  2  0
 11 12  1  0
 12 13  2  0
M  END
$$$$
