
     RDKit          3D

 26 28  0  0  1  0  0  0  0  0999 V2000
   -1.0517    1.4078    1.0728 O   0  0  0  0  0  0  0  0  0  0  0  0
   -1.6491    1.6301   -0.0156 C   0  0  0  0  0  0  0  0  0  0  0  0
   -1.0685    2.4409   -0.9970 O   0  0  0  0  0  0  0  0  0  0  0  0
    0.2541    2.9637   -0.8931 C   0  0  0  0  0  0  0  0  0  0  0  0
    1.2652    1.8604   -1.0493 C   0  0  0  0  0  0  0  0  0  0  0  0
    1.3663    1.1714   -2.2669 C   0  0  0  0  0  0  0  0  0  0  0  0
    2.2746    0.1198   -2.4068 C   0  0  0  0  0  0  0  0  0  0  0  0
    3.0947   -0.2458   -1.3367 C   0  0  0  0  0  0  0  0  0  0  0  0
    3.0226    0.4536   -0.1181 C   0  0  0  0  0  0  0  0  0  0  0  0
    3.8152    0.1071    0.9861 O   0  0  0  0  0  0  0  0  0  0  0  0
    5.0999   -0.4527    0.9250 C   0  0  0  0  0  0  0  0  0  0  0  0
    5.5150   -1.2972    1.9622 C   0  0  0  0  0  0  0  0  0  0  0  0
    6.7929   -1.8653    1.9437 C   0  0  0  0  0  0  0  0  0  0  0  0
    7.6700   -1.5807    0.8934 C   0  0  0  0  0  0  0  0  0  0  0  0
    7.2729   -0.7217   -0.1348 C   0  0  0  0  0  0  0  0  0  0  0  0
    5.9955   -0.1527   -0.1186 C   0  0  0  0  0  0  0  0  0  0  0  0
    2.0970    1.4947    0.0220 C   0  0  0  0  0  0  0  0  0  0  0  0
   -3.0226    1.0744   -0.2391 C   0  0  2  0  0  0  0  0  0  0  0  0
   -3.1564   -0.4309    0.0408 C   0  0  1  0  0  0  0  0  0  0  0  0
   -4.4656   -0.8251    0.6808 C   0  0  0  0  0  0  0  0  0  0  0  0
   -4.7440   -0.6064    1.9825 C   0  0  0  0  0  0  0  0  0  0  0  0
   -6.0688   -1.0742    2.5269 C   0  0  0  0  0  0  0  0  0  0  0  0
   -3.7549    0.0750    2.8979 C   0  0  0  0  0  0  0  0  0  0  0  0
   -3.1988    0.0902   -1.4035 C   0  0  0  0  0  0  0  0  0  0  0  0
   -1.9797   -0.2826   -2.2605 C   0  0  0  0  0  0  0  0  0  0  0  0
   -4.5502    0.1740   -2.1286 C   0  0  0  0  0  0  0  0  0  0  0  0
  1  2  2  0
 18  2  1  6
  2  3  1  0
  3  4  1  0
  4  5  1  0
  5  6  2  0
  5 17  1  0
  6  7  1  0
  7  8  2  0
  8  9  1  0
  9 17  2  0
  9 10  1  0
 10 11  1  0
 11 16  1  0
 11 12  2  0
 12 13  1  0
 13 14  2  0
 14 15  1  0
 15 16  2  0
 18 19  1  0
 18 24  1  0
 19 20  1  1
 19 24  1  0
 20 21  2  0
 21 22  1  0
 21 23  1  0
 24 25  1  0
 24 26  1  0
M  END
$$$$
