c1(cccc3)c3Oc(cccc2)c2O1
     RDKit          3D

 14 16  0  0  0  0  0  0  0  0999 V2000
    1.1769   -0.7489    0.1836 C   0  0  0  0  0  0  0  0  0  0  0  0
    2.3469   -1.4929    0.3661 C   0  0  0  0  0  0  0  0  0  0  0  0
    3.5882   -0.8473    0.3827 C   0  0  0  0  0  0  0  0  0  0  0  0
    3.6606    0.5408    0.2172 C   0  0  0  0  0  0  0  0  0  0  0  0
    2.4919    1.2884    0.0344 C   0  0  0  0  0  0  0  0  0  0  0  0
    1.2496    0.6464    0.0172 C   0  0  0  0  0  0  0  0  0  0  0  0
    0.0721    1.3818   -0.1648 O   0  0  0  0  0  0  0  0  0  0  0  0
   -1.1769    0.7489   -0.1836 C   0  0  0  0  0  0  0  0  0  0  0  0
   -2.3469    1.4929   -0.3661 C   0  0  0  0  0  0  0  0  0  0  0  0
   -3.5882    0.8473   -0.3827 C   0  0  0  0  0  0  0  0  0  0  0  0
   -3.6606   -0.5408   -0.2172 C   0  0  0  0  0  0  0  0  0  0  0  0
   -2.4919   -1.2884   -0.0344 C   0  0  0  0  0  0  0  0  0  0  0  0
   -1.2496   -0.6464   -0.0172 C   0  0  0  0  0  0  0  0  0  0  0  0
   -0.0721   -1.3818    0.1648 O   0  0  0  0  0  0  0  0  0  0  0  0
  1 14  1  0
  1  6  1  0
  1  2  2  0
  2  3  1  0
  3  4  2  0
  4  5  1  0
  5  6  2  0
  6  7  1  0
  7  8  1  0
  8 13  2  0
  8  9  1  0
  9 10  2  0
 10 11  1  0
 11 12  2  0
 12 13  1  0
 13 14  1  0
M  END
$$$$
