OC4CCN(CC4)CCCN2c1ccccc1Sc3c2cc(C#N)cc3
     RDKit          3D

 26 29  0  0  0  0  0  0  0  0999 V2000
    5.8460    0.1525   -1.5807 O   0  0  0  0  0  0  0  0  0  0  0  0
    5.3721    0.0227   -0.2649 C   0  0  0  0  0  0  0  0  0  0  0  0
    4.3362   -1.1216   -0.1813 C   0  0  0  0  0  0  0  0  0  0  0  0
    2.9088   -0.6001   -0.3973 C   0  0  0  0  0  0  0  0  0  0  0  0
    2.5132    0.4293    0.6034 N   0  0  0  0  0  0  0  0  0  0  0  0
    3.6535    1.1637    1.2045 C   0  0  0  0  0  0  0  0  0  0  0  0
    4.7833    1.3731    0.1915 C   0  0  0  0  0  0  0  0  0  0  0  0
    1.5937   -0.0947    1.6412 C   0  0  0  0  0  0  0  0  0  0  0  0
    0.1446    0.2966    1.3248 C   0  0  0  0  0  0  0  0  0  0  0  0
   -0.4038   -0.4045    0.0747 C   0  0  0  0  0  0  0  0  0  0  0  0
   -1.8340   -0.1058   -0.1008 N   0  0  0  0  0  0  0  0  0  0  0  0
   -2.3113    1.2513   -0.2412 C   0  0  0  0  0  0  0  0  0  0  0  0
   -1.6323    2.1850   -1.0442 C   0  0  0  0  0  0  0  0  0  0  0  0
   -2.1941    3.4422   -1.2884 C   0  0  0  0  0  0  0  0  0  0  0  0
   -3.4403    3.7721   -0.7485 C   0  0  0  0  0  0  0  0  0  0  0  0
   -4.1209    2.8535    0.0548 C   0  0  0  0  0  0  0  0  0  0  0  0
   -3.5521    1.6041    0.3226 C   0  0  0  0  0  0  0  0  0  0  0  0
   -4.3517    0.4747    1.4672 S   0  0  0  0  0  0  0  0  0  0  0  0
   -4.0844   -0.9550    0.4149 C   0  0  0  0  0  0  0  0  0  0  0  0
   -2.8157   -1.1633   -0.1574 C   0  0  0  0  0  0  0  0  0  0  0  0
   -2.5891   -2.3213   -0.9221 C   0  0  0  0  0  0  0  0  0  0  0  0
   -3.6137   -3.2603   -1.1019 C   0  0  0  0  0  0  0  0  0  0  0  0
   -3.3774   -4.4426   -1.8884 C   0  0  0  0  0  0  0  0  0  0  0  0
   -3.1874   -5.3930   -2.5207 N   0  0  0  0  0  0  0  0  0  0  0  0
   -4.8761   -3.0346   -0.5392 C   0  0  0  0  0  0  0  0  0  0  0  0
   -5.1122   -1.8809    0.2127 C   0  0  0  0  0  0  0  0  0  0  0  0
  1  2  1  0
  2  3  1  0
  2  7  1  0
  3  4  1  0
  4  5  1  0
  5  8  1  0
  5  6  1  0
  6  7  1  0
  8  9  1  0
  9 10  1  0
 10 11  1  0
 11 12  1  0
 11 20  1  0
 12 13  2  0
 12 17  1  0
 13 14  1  0
 14 15  2  0
 15 16  1  0
 16 17  2  0
 17 18  1  0
 18 19  1  0
 19 26  2  0
 19 20  1  0
 20 21  2  0
 21 22  1  0
 22 25  2  0
 22 23  1  0
 23 24  3  0
 25 26  1  0
M  END
$$$$
