CC(Nc(cc1)ccc1OC(C)=O)=O
     RDKit          3D

 14 14  0  0  0  0  0  0  0  0999 V2000
   -4.9622    0.8162   -0.6207 C   0  0  0  0  0  0  0  0  0  0  0  0
   -3.5394    0.4114   -0.8303 C   0  0  0  0  0  0  0  0  0  0  0  0
   -2.7162    0.0920    0.3020 N   0  0  0  0  0  0  0  0  0  0  0  0
   -1.2959   -0.1230    0.2337 C   0  0  0  0  0  0  0  0  0  0  0  0
   -0.4830    0.6089   -0.6497 C   0  0  0  0  0  0  0  0  0  0  0  0
    0.8990    0.3979   -0.6788 C   0  0  0  0  0  0  0  0  0  0  0  0
   -0.6980   -1.0460    1.1037 C   0  0  0  0  0  0  0  0  0  0  0  0
    0.6831   -1.2581    1.0722 C   0  0  0  0  0  0  0  0  0  0  0  0
    1.4941   -0.5322    0.1931 C   0  0  0  0  0  0  0  0  0  0  0  0
    2.8736   -0.7881    0.1912 O   0  0  0  0  0  0  0  0  0  0  0  0
    3.8682    0.1311   -0.1667 C   0  0  0  0  0  0  0  0  0  0  0  0
    5.2591   -0.3536   -0.3966 C   0  0  0  0  0  0  0  0  0  0  0  0
    3.6296    1.3687   -0.1994 O   0  0  0  0  0  0  0  0  0  0  0  0
   -3.0870    0.3188   -2.0033 O   0  0  0  0  0  0  0  0  0  0  0  0
  1  2  1  0
  2  3  1  0
  2 14  2  0
  3  4  1  0
  4  5  2  0
  4  7  1  0
  5  6  1  0
  6  9  2  0
  7  8  2  0
  8  9  1  0
  9 10  1  0
 10 11  1  0
 11 12  1  0
 11 13  2  0
M  END
$$$$
