O=C(Oc1cc(C(C)(C)C)cc(C(C)(C)C)c1)NC
     RDKit          3D

 19 19  0  0  0  0  0  0  0  0999 V2000
    3.2544    0.6816   -2.1299 O   0  0  0  0  0  0  0  0  0  0  0  0
    3.6870    0.0365   -1.1368 C   0  0  0  0  0  0  0  0  0  0  0  0
    2.8026   -0.5879   -0.2457 O   0  0  0  0  0  0  0  0  0  0  0  0
    1.4300   -0.3161   -0.1411 C   0  0  0  0  0  0  0  0  0  0  0  0
    0.9031    0.9605   -0.3828 C   0  0  0  0  0  0  0  0  0  0  0  0
   -0.4816    1.2102   -0.2689 C   0  0  0  0  0  0  0  0  0  0  0  0
   -1.1013    2.5998   -0.5389 C   0  0  0  0  0  0  0  0  0  0  0  0
   -2.1352    2.4906   -1.6816 C   0  0  0  0  0  0  0  0  0  0  0  0
   -1.8013    3.1101    0.7399 C   0  0  0  0  0  0  0  0  0  0  0  0
   -0.0568    3.6637   -0.9566 C   0  0  0  0  0  0  0  0  0  0  0  0
   -1.3181    0.1383    0.1156 C   0  0  0  0  0  0  0  0  0  0  0  0
   -0.8061   -1.1506    0.3906 C   0  0  0  0  0  0  0  0  0  0  0  0
   -1.7015   -2.3323    0.8237 C   0  0  0  0  0  0  0  0  0  0  0  0
   -1.5748   -3.4779   -0.2045 C   0  0  0  0  0  0  0  0  0  0  0  0
   -1.2515   -2.8374    2.2121 C   0  0  0  0  0  0  0  0  0  0  0  0
   -3.2006   -1.9592    0.9255 C   0  0  0  0  0  0  0  0  0  0  0  0
    0.5821   -1.3478    0.2580 C   0  0  0  0  0  0  0  0  0  0  0  0
    5.0979   -0.1045   -0.9537 N   0  0  0  0  0  0  0  0  0  0  0  0
    5.6482   -0.8566    0.1657 C   0  0  0  0  0  0  0  0  0  0  0  0
  1  2  2  0
  2 18  1  0
  2  3  1  0
  3  4  1  0
  4 17  2  0
  4  5  1  0
  5  6  2  0
  6 11  1  0
  6  7  1  0
  7  8  1  0
  7  9  1  0
  7 10  1  0
 11 12  2  0
 12 17  1  0
 12 13  1  0
 13 14  1  0
 13 15  1  0
 13 16  1  0
 18 19  1  0
M  END
$$$$
