c12c(cccc2)nco1
     RDKit          3D

  9 10  0  0  0  0  0  0  0  0999 V2000
    0.5621   -0.7209   -0.0000 C   0  0  0  0  0  0  0  0  0  0  0  0
    0.6612    0.6352   -0.0537 C   0  0  0  0  0  0  0  0  0  0  0  0
   -0.4636    1.4567   -0.0312 C   0  0  0  0  0  0  0  0  0  0  0  0
   -1.7244    0.8338    0.0500 C   0  0  0  0  0  0  0  0  0  0  0  0
   -1.8244   -0.5764    0.1057 C   0  0  0  0  0  0  0  0  0  0  0  0
   -0.6644   -1.3744    0.0806 C   0  0  0  0  0  0  0  0  0  0  0  0
    1.9517    1.0013   -0.1270 N   0  0  0  0  0  0  0  0  0  0  0  0
    2.5897   -0.1992   -0.1132 C   0  0  0  0  0  0  0  0  0  0  0  0
    1.7632   -1.2299   -0.0375 O   0  0  0  0  0  0  0  0  0  0  0  0
  1  9  1  0
  1  2  1  0
  1  6  2  0
  2  3  2  0
  2  7  1  0
  3  4  1  0
  4  5  2  0
  5  6  1  0
  7  8  2  0
  8  9  1  0
M  END
$$$$
