O=C(C(NC(C(Cl)Cl)=O)=C2Cl)c(cccc1)c1C2=O
     RDKit          3D

 19 20  0  0  0  0  0  0  0  0999 V2000
    0.5038    1.8771   -0.1440 O   0  0  0  0  0  0  0  0  0  0  0  0
    0.0532    0.7168    0.0582 C   0  0  0  0  0  0  0  0  0  0  0  0
    0.9917   -0.4023    0.3290 C   0  0  0  0  0  0  0  0  0  0  0  0
    2.4098   -0.1695    0.2920 N   0  0  0  0  0  0  0  0  0  0  0  0
    3.0687    0.4323   -0.8331 C   0  0  0  0  0  0  0  0  0  0  0  0
    4.5318    0.7486   -0.7735 C   0  0  0  0  0  0  0  0  0  0  0  0
    5.4747   -0.7531   -0.6089 Cl  0  0  0  0  0  0  0  0  0  0  0  0
    4.8740    1.8220    0.6061 Cl  0  0  0  0  0  0  0  0  0  0  0  0
    2.4297    0.6653   -1.8950 O   0  0  0  0  0  0  0  0  0  0  0  0
    0.5165   -1.6205    0.6561 C   0  0  0  0  0  0  0  0  0  0  0  0
    1.6191   -2.9574    0.9878 Cl  0  0  0  0  0  0  0  0  0  0  0  0
   -1.4083    0.4799    0.0608 C   0  0  0  0  0  0  0  0  0  0  0  0
   -2.3126    1.5129   -0.2437 C   0  0  0  0  0  0  0  0  0  0  0  0
   -3.6885    1.2710   -0.2299 C   0  0  0  0  0  0  0  0  0  0  0  0
   -4.1736    0.0012    0.0882 C   0  0  0  0  0  0  0  0  0  0  0  0
   -3.2848   -1.0325    0.3939 C   0  0  0  0  0  0  0  0  0  0  0  0
   -1.8979   -0.8010    0.3823 C   0  0  0  0  0  0  0  0  0  0  0  0
   -0.9390   -1.8810    0.7044 C   0  0  0  0  0  0  0  0  0  0  0  0
   -1.3565   -3.0291    1.0167 O   0  0  0  0  0  0  0  0  0  0  0  0
  1  2  2  0
  2 12  1  0
  2  3  1  0
  3 10  2  0
  3  4  1  0
  4  5  1  0
  5  6  1  0
  5  9  2  0
  6  8  1  0
  6  7  1  0
 10 18  1  0
 10 11  1  0
 12 13  1  0
 12 17  2  0
 13 14  2  0
 14 15  1  0
 15 16  2  0
 16 17  1  0
 17 18  1  0
 18 19  2  0
M  END
$$$$
