C1CCCC1
     RDKit          3D

  5  5  0  0  0  0  0  0  0  0999 V2000
   -0.7238    1.0039   -0.3436 C   0  0  0  0  0  0  0  0  0  0  0  0
   -1.1774   -0.1966    0.4832 C   0  0  0  0  0  0  0  0  0  0  0  0
    0.0303   -1.1189    0.6299 C   0  0  0  0  0  0  0  0  0  0  0  0
    1.0971   -0.5811   -0.3093 C   0  0  0  0  0  0  0  0  0  0  0  0
    0.7872    0.8948   -0.4656 C   0  0  0  0  0  0  0  0  0  0  0  0
  1  5  1  0
  1  2  1  0
  2  3  1  0
  3  4  1  0
  4  5  1  0
M  END
$$$$
