c1cccnn1
     RDKit          3D

  6  6  0  0  0  0  0  0  0  0999 V2000
    1.3839   -0.3945   -0.1061 C   0  0  0  0  0  0  0  0  0  0  0  0
    0.6799    0.7850    0.1327 C   0  0  0  0  0  0  0  0  0  0  0  0
   -0.7132    0.7500    0.1579 C   0  0  0  0  0  0  0  0  0  0  0  0
   -1.3653   -0.4637   -0.0564 C   0  0  0  0  0  0  0  0  0  0  0  0
   -0.6331   -1.5857   -0.2850 N   0  0  0  0  0  0  0  0  0  0  0  0
    0.7013   -1.5521   -0.3092 N   0  0  0  0  0  0  0  0  0  0  0  0
  1  6  2  0
  1  2  1  0
  2  3  2  0
  3  4  1  0
  4  5  2  0
  5  6  1  0
M  END
$$$$
