c1ccncn1
     RDKit          3D

  6  6  0  0  0  0  0  0  0  0999 V2000
   -0.8570   -0.9418   -0.0139 C   0  0  0  0  0  0  0  0  0  0  0  0
   -1.0560    0.4352    0.0838 C   0  0  0  0  0  0  0  0  0  0  0  0
    0.0615    1.2696    0.0770 C   0  0  0  0  0  0  0  0  0  0  0  0
    1.3063    0.7343   -0.0232 N   0  0  0  0  0  0  0  0  0  0  0  0
    1.4809   -0.6103   -0.1176 C   0  0  0  0  0  0  0  0  0  0  0  0
    0.4036   -1.4390   -0.1126 N   0  0  0  0  0  0  0  0  0  0  0  0
  1  6  2  0
  1  2  1  0
  2  3  2  0
  3  4  1  0
  4  5  2  0
  5  6  1  0
M  END
$$$$
