C1CCCCCCC1
     RDKit          3D

  8  8  0  0  0  0  0  0  0  0999 V2000
    1.0554    1.5810    0.1066 C   0  0  0  0  0  0  0  0  0  0  0  0
   -0.3031    1.5707   -0.6205 C   0  0  0  0  0  0  0  0  0  0  0  0
   -1.4779    0.9889    0.1937 C   0  0  0  0  0  0  0  0  0  0  0  0
   -1.8753   -0.4360   -0.2319 C   0  0  0  0  0  0  0  0  0  0  0  0
   -0.8879   -1.5421    0.1818 C   0  0  0  0  0  0  0  0  0  0  0  0
    0.4213   -1.5372   -0.6352 C   0  0  0  0  0  0  0  0  0  0  0  0
    1.6459   -0.9523    0.0946 C   0  0  0  0  0  0  0  0  0  0  0  0
    1.4168    0.3259    0.9189 C   0  0  0  0  0  0  0  0  0  0  0  0
  1  8  1  0
  1  2  1  0
  2  3  1  0
  3  4  1  0
  4  5  1  0
  5  6  1  0
  6  7  1  0
  7  8  1  0
M  END
$$$$
