
     RDKit          3D

 18 19  0  0  1  0  0  0  0  0999 V2000
    0.5355    2.2353   -0.8495 O   0  0  0  0  0  0  0  0  0  0  0  0
    0.1548    1.0757   -0.5390 C   0  0  0  0  0  0  0  0  0  0  0  0
    1.0061   -0.0647   -0.5327 N   0  0  0  0  0  0  0  0  0  0  0  0
    2.6837   -0.1229   -1.0978 S   0  0  0  0  0  0  0  0  0  0  0  0
    3.4456    0.0561    0.5677 C   0  0  0  0  0  0  0  0  0  0  0  0
    2.9237    1.5929    1.3190 Cl  0  0  0  0  0  0  0  0  0  0  0  0
    2.9109   -1.2749    1.6359 Cl  0  0  0  0  0  0  0  0  0  0  0  0
    4.9847    0.0379    0.4650 C   0  0  0  0  0  0  0  0  0  0  0  0
    5.6066    1.3835   -0.5356 Cl  0  0  0  0  0  0  0  0  0  0  0  0
    5.5932   -1.4988   -0.2183 Cl  0  0  0  0  0  0  0  0  0  0  0  0
    0.1464   -1.1831   -0.3393 C   0  0  0  0  0  0  0  0  0  0  0  0
   -1.2836   -0.7659   -0.3963 C   0  0  1  0  0  0  0  0  0  0  0  0
   -2.3339   -1.4261    0.4934 C   0  0  0  0  0  0  0  0  0  0  0  0
   -3.6245   -0.6116    0.4240 C   0  0  0  0  0  0  0  0  0  0  0  0
   -3.6759    0.6661   -0.0455 C   0  0  0  0  0  0  0  0  0  0  0  0
   -2.4510    1.4107   -0.5708 C   0  0  0  0  0  0  0  0  0  0  0  0
   -1.2001    0.7189   -0.0366 C   0  0  2  0  0  0  0  0  0  0  0  0
    0.5490   -2.3757   -0.3027 O   0  0  0  0  0  0  0  0  0  0  0  0
  1  2  2  0
 17  2  1  6
  2  3  1  0
  3 11  1  0
  3  4  1  0
  4  5  1  0
  5  8  1  0
  5  7  1  0
  5  6  1  0
  8 10  1  0
  8  9  1  0
 12 11  1  1
 11 18  2  0
 12 13  1  0
 12 17  1  0
 13 14  1  0
 14 15  2  0
 15 16  1  0
 16 17  1  0
M  END
$$$$
