O=C1N(c2ccccc2)N=CC(N)=C1Br
     RDKit          3D

 15 16  0  0  0  0  0  0  0  0999 V2000
    0.4059   -1.9593   -0.9482 O   0  0  0  0  0  0  0  0  0  0  0  0
    0.9920   -1.0020   -0.3713 C   0  0  0  0  0  0  0  0  0  0  0  0
    0.2741    0.0432    0.1522 N   0  0  0  0  0  0  0  0  0  0  0  0
   -1.1652    0.0756    0.0994 C   0  0  0  0  0  0  0  0  0  0  0  0
   -1.8249    1.2348   -0.3433 C   0  0  0  0  0  0  0  0  0  0  0  0
   -3.2220    1.2839   -0.3772 C   0  0  0  0  0  0  0  0  0  0  0  0
   -3.9720    0.1817    0.0411 C   0  0  0  0  0  0  0  0  0  0  0  0
   -3.3262   -0.9697    0.4991 C   0  0  0  0  0  0  0  0  0  0  0  0
   -1.9293   -1.0233    0.5340 C   0  0  0  0  0  0  0  0  0  0  0  0
    0.9043    1.0789    0.7136 N   0  0  0  0  0  0  0  0  0  0  0  0
    2.2554    1.1373    0.8136 C   0  0  0  0  0  0  0  0  0  0  0  0
    3.0355    0.0920    0.3187 C   0  0  0  0  0  0  0  0  0  0  0  0
    4.4623    0.1590    0.4338 N   0  0  0  0  0  0  0  0  0  0  0  0
    2.3914   -0.9986   -0.2877 C   0  0  0  0  0  0  0  0  0  0  0  0
    3.3831   -2.4762   -1.0176 Br  0  0  0  0  0  0  0  0  0  0  0  0
  1  2  2  0
  2 14  1  0
  2  3  1  0
  3  4  1  0
  3 10  1  0
  4  9  1  0
  4  5  2  0
  5  6  1  0
  6  7  2  0
  7  8  1  0
  8  9  2  0
 10 11  2  0
 11 12  1  0
 12 14  2  0
 12 13  1  0
 14 15  1  0
M  END
$$$$
