FC(F)(F)c1cccc(C(c3ccccc3)(n4cncn4)c2ccccc2)c1
     RDKit          3D

 28 31  0  0  0  0  0  0  0  0999 V2000
    5.6461    0.0006   -0.9231 F   0  0  0  0  0  0  0  0  0  0  0  0
    4.3435   -0.3431   -1.2417 C   0  0  0  0  0  0  0  0  0  0  0  0
    4.0155    0.2455   -2.4496 F   0  0  0  0  0  0  0  0  0  0  0  0
    4.2710   -1.7177   -1.3761 F   0  0  0  0  0  0  0  0  0  0  0  0
    3.3691    0.1095   -0.1820 C   0  0  0  0  0  0  0  0  0  0  0  0
    3.7992    0.7986    0.9618 C   0  0  0  0  0  0  0  0  0  0  0  0
    2.8750    1.2203    1.9143 C   0  0  0  0  0  0  0  0  0  0  0  0
    1.5175    0.9491    1.7465 C   0  0  0  0  0  0  0  0  0  0  0  0
    1.0465    0.2277    0.6244 C   0  0  0  0  0  0  0  0  0  0  0  0
   -0.4775   -0.0292    0.4543 C   0  0  0  0  0  0  0  0  0  0  0  0
   -0.6981   -1.2633   -0.4627 C   0  0  0  0  0  0  0  0  0  0  0  0
   -0.7359   -1.1235   -1.8731 C   0  0  0  0  0  0  0  0  0  0  0  0
   -0.9000   -2.2335   -2.7049 C   0  0  0  0  0  0  0  0  0  0  0  0
   -1.0089   -3.5094   -2.1561 C   0  0  0  0  0  0  0  0  0  0  0  0
   -0.9402   -3.6792   -0.7745 C   0  0  0  0  0  0  0  0  0  0  0  0
   -0.7754   -2.5736    0.0649 C   0  0  0  0  0  0  0  0  0  0  0  0
   -1.0656   -0.3150    1.7947 N   0  0  0  0  0  0  0  0  0  0  0  0
   -2.3285   -0.1066    2.2309 C   0  0  0  0  0  0  0  0  0  0  0  0
   -2.5079   -0.5749    3.4809 N   0  0  0  0  0  0  0  0  0  0  0  0
   -1.2983   -1.0885    3.7769 C   0  0  0  0  0  0  0  0  0  0  0  0
   -0.4238   -0.9484    2.7659 N   0  0  0  0  0  0  0  0  0  0  0  0
   -1.1784    1.2207   -0.1548 C   0  0  0  0  0  0  0  0  0  0  0  0
   -2.4809    1.1034   -0.7004 C   0  0  0  0  0  0  0  0  0  0  0  0
   -3.1453    2.2076   -1.2387 C   0  0  0  0  0  0  0  0  0  0  0  0
   -2.5333    3.4586   -1.2425 C   0  0  0  0  0  0  0  0  0  0  0  0
   -1.2560    3.6077   -0.7064 C   0  0  0  0  0  0  0  0  0  0  0  0
   -0.5840    2.5075   -0.1653 C   0  0  0  0  0  0  0  0  0  0  0  0
    1.9999   -0.1610   -0.3479 C   0  0  0  0  0  0  0  0  0  0  0  0
  1  2  1  0
  2  5  1  0
  2  4  1  0
  2  3  1  0
  5  6  2  0
  5 28  1  0
  6  7  1  0
  7  8  2  0
  8  9  1  0
  9 28  2  0
  9 10  1  0
 10 22  1  0
 10 11  1  0
 10 17  1  0
 11 16  1  0
 11 12  2  0
 12 13  1  0
 13 14  2  0
 14 15  1  0
 15 16  2  0
 17 18  1  0
 17 21  1  0
 18 19  2  0
 19 20  1  0
 20 21  2  0
 22 27  1  0
 22 23  2  0
 23 24  1  0
 24 25  2  0
 25 26  1  0
 26 27  2  0
M  END
$$$$
