Oc1c(cn[nH]2)c2ncn1
     RDKit          3D

 10 11  0  0  0  0  0  0  0  0999 V2000
   -2.4425   -0.9635    0.2289 O   0  0  0  0  0  0  0  0  0  0  0  0
   -1.3940   -0.0521    0.1354 C   0  0  0  0  0  0  0  0  0  0  0  0
   -0.0707   -0.4569    0.0025 C   0  0  0  0  0  0  0  0  0  0  0  0
    0.5669   -1.6774   -0.0715 C   0  0  0  0  0  0  0  0  0  0  0  0
    1.8995   -1.4493   -0.1992 N   0  0  0  0  0  0  0  0  0  0  0  0
    2.1057   -0.1357   -0.2066 N   0  0  0  0  0  0  0  0  0  0  0  0
    0.9162    0.4676   -0.0848 C   0  0  0  0  0  0  0  0  0  0  0  0
    0.6722    1.7992   -0.0482 N   0  0  0  0  0  0  0  0  0  0  0  0
   -0.6261    2.2094    0.0824 C   0  0  0  0  0  0  0  0  0  0  0  0
   -1.6420    1.2908    0.1726 N   0  0  0  0  0  0  0  0  0  0  0  0
  1  2  1  0
  2  3  2  0
  2 10  1  0
  3  4  1  0
  3  7  1  0
  4  5  2  0
  5  6  1  0
  6  7  1  0
  7  8  2  0
  8  9  1  0
  9 10  2  0
M  END
$$$$
