ClC1C(Cl)C(Cl)C(Cl)C(Cl)C1Cl
     RDKit          3D

 12 12  0  0  0  0  0  0  0  0999 V2000
    3.0022   -0.9781    0.0392 Cl  0  0  0  0  0  0  0  0  0  0  0  0
    1.3212   -0.5005   -0.3635 C   0  0  2  0  0  0  0  0  0  0  0  0
    1.1103    0.9889   -0.0145 C   0  0  1  0  0  0  0  0  0  0  0  0
    2.2617    2.0347   -0.9071 Cl  0  0  0  0  0  0  0  0  0  0  0  0
   -0.3428    1.4433   -0.2702 C   0  0  1  0  0  0  0  0  0  0  0  0
   -0.7032    1.5724   -2.0269 Cl  0  0  0  0  0  0  0  0  0  0  0  0
   -1.3410    0.5275    0.4754 C   0  0  1  0  0  0  0  0  0  0  0  0
   -3.0359    1.0317    0.1922 Cl  0  0  0  0  0  0  0  0  0  0  0  0
   -1.1365   -0.9754    0.1746 C   0  0  1  0  0  0  0  0  0  0  0  0
   -1.6889   -1.4312   -1.4745 Cl  0  0  0  0  0  0  0  0  0  0  0  0
    0.3306   -1.3868    0.4224 C   0  0  1  0  0  0  0  0  0  0  0  0
    0.5690   -3.1229    0.0414 Cl  0  0  0  0  0  0  0  0  0  0  0  0
  2  1  1  1
  2  3  1  0
  2 11  1  0
  3  5  1  0
  3  4  1  6
  5  7  1  0
  5  6  1  6
  7  9  1  0
  7  8  1  6
  9 11  1  0
  9 10  1  6
 11 12  1  6
M  END
$$$$
