Cc1c(ccc3c2nccc3C)c2ncc1
     RDKit          3D

 16 18  0  0  0  0  0  0  0  0999 V2000
    3.6011    1.5682   -0.2485 C   0  0  0  0  0  0  0  0  0  0  0  0
    2.8158    0.2816   -0.2384 C   0  0  0  0  0  0  0  0  0  0  0  0
    1.4039    0.2651   -0.1130 C   0  0  0  0  0  0  0  0  0  0  0  0
    0.6459    1.4447    0.0097 C   0  0  0  0  0  0  0  0  0  0  0  0
   -0.7437    1.3907    0.1313 C   0  0  0  0  0  0  0  0  0  0  0  0
   -1.4184    0.1555    0.1340 C   0  0  0  0  0  0  0  0  0  0  0  0
   -0.6643   -1.0375    0.0109 C   0  0  0  0  0  0  0  0  0  0  0  0
   -1.2972   -2.2425    0.0112 N   0  0  0  0  0  0  0  0  0  0  0  0
   -2.6444   -2.3489    0.1266 C   0  0  0  0  0  0  0  0  0  0  0  0
   -3.4300   -1.2050    0.2502 C   0  0  0  0  0  0  0  0  0  0  0  0
   -2.8276    0.0624    0.2555 C   0  0  0  0  0  0  0  0  0  0  0  0
   -3.6995    1.2847    0.3904 C   0  0  0  0  0  0  0  0  0  0  0  0
    0.7340   -0.9832   -0.1115 C   0  0  0  0  0  0  0  0  0  0  0  0
    1.4482   -2.1358   -0.2291 N   0  0  0  0  0  0  0  0  0  0  0  0
    2.7991   -2.1375   -0.3498 C   0  0  0  0  0  0  0  0  0  0  0  0
    3.5038   -0.9357   -0.3567 C   0  0  0  0  0  0  0  0  0  0  0  0
  1  2  1  0
  2 16  2  0
  2  3  1  0
  3  4  2  0
  3 13  1  0
  4  5  1  0
  5  6  2  0
  6 11  1  0
  6  7  1  0
  7 13  2  0
  7  8  1  0
  8  9  2  0
  9 10  1  0
 10 11  2  0
 11 12  1  0
 13 14  1  0
 14 15  2  0
 15 16  1  0
M  END
$$$$
