Clc(ccc(Cl)c2)c2c1ccc(Cl)c(Cl)c1
     RDKit          3D

 16 17  0  0  0  0  0  0  0  0999 V2000
   -0.5995   -2.7723    0.5943 Cl  0  0  0  0  0  0  0  0  0  0  0  0
   -1.4583   -1.2603    0.3146 C   0  0  0  0  0  0  0  0  0  0  0  0
   -2.8577   -1.2766    0.3586 C   0  0  0  0  0  0  0  0  0  0  0  0
   -3.5871   -0.1168    0.0889 C   0  0  0  0  0  0  0  0  0  0  0  0
   -2.9225    1.0686   -0.2339 C   0  0  0  0  0  0  0  0  0  0  0  0
   -3.8408    2.5231   -0.5780 Cl  0  0  0  0  0  0  0  0  0  0  0  0
   -1.5253    1.0960   -0.2807 C   0  0  0  0  0  0  0  0  0  0  0  0
   -0.7787   -0.0616    0.0005 C   0  0  0  0  0  0  0  0  0  0  0  0
    0.6993    0.0066   -0.0437 C   0  0  0  0  0  0  0  0  0  0  0  0
    1.3500    0.4559   -1.2034 C   0  0  0  0  0  0  0  0  0  0  0  0
    2.7443    0.5366   -1.2433 C   0  0  0  0  0  0  0  0  0  0  0  0
    3.5046    0.1784   -0.1249 C   0  0  0  0  0  0  0  0  0  0  0  0
    5.2570    0.2930   -0.2137 Cl  0  0  0  0  0  0  0  0  0  0  0  0
    2.8609   -0.2601    1.0446 C   0  0  0  0  0  0  0  0  0  0  0  0
    3.7780   -0.7093    2.4761 Cl  0  0  0  0  0  0  0  0  0  0  0  0
    1.4638   -0.3398    1.0825 C   0  0  0  0  0  0  0  0  0  0  0  0
  1  2  1  0
  2  3  2  0
  2  8  1  0
  3  4  1  0
  4  5  2  0
  5  7  1  0
  5  6  1  0
  7  8  2  0
  8  9  1  0
  9 10  2  0
  9 16  1  0
 10 11  1  0
 11 12  2  0
 12 14  1  0
 12 13  1  0
 14 15  1  0
 14 16  2  0
M  END
$$$$
