O=C(Nc1cc(Cl)c(Cl)cc1)N(C)OC
     RDKit          3D

 15 15  0  0  0  0  0  0  0  0999 V2000
   -0.5257    0.0722   -1.8115 O   0  0  0  0  0  0  0  0  0  0  0  0
   -0.8937   -0.4043   -0.7034 C   0  0  0  0  0  0  0  0  0  0  0  0
    0.0855   -0.6975    0.3101 N   0  0  0  0  0  0  0  0  0  0  0  0
    1.4222   -0.1665    0.3045 C   0  0  0  0  0  0  0  0  0  0  0  0
    2.4681   -0.9275    0.8483 C   0  0  0  0  0  0  0  0  0  0  0  0
    3.7752   -0.4268    0.8766 C   0  0  0  0  0  0  0  0  0  0  0  0
    5.0550   -1.4247    1.5539 Cl  0  0  0  0  0  0  0  0  0  0  0  0
    4.0430    0.8558    0.3701 C   0  0  0  0  0  0  0  0  0  0  0  0
    5.6697    1.5233    0.3887 Cl  0  0  0  0  0  0  0  0  0  0  0  0
    2.9996    1.6271   -0.1521 C   0  0  0  0  0  0  0  0  0  0  0  0
    1.6959    1.1248   -0.1801 C   0  0  0  0  0  0  0  0  0  0  0  0
   -2.2927   -0.6693   -0.4859 N   0  0  0  0  0  0  0  0  0  0  0  0
   -2.7661   -1.3482    0.7198 C   0  0  0  0  0  0  0  0  0  0  0  0
   -3.1869   -0.3768   -1.4714 O   0  0  0  0  0  0  0  0  0  0  0  0
   -3.6646    0.9230   -1.2194 C   0  0  0  0  0  0  0  0  0  0  0  0
  1  2  2  0
  2  3  1  0
  2 12  1  0
  3  4  1  0
  4 11  2  0
  4  5  1  0
  5  6  2  0
  6  8  1  0
  6  7  1  0
  8 10  2  0
  8  9  1  0
 10 11  1  0
 12 13  1  0
 12 14  1  0
 14 15  1  0
M  END
$$$$
