Clc(cc(Cl)cc2)c2c1ccccc1
     RDKit          3D

 14 15  0  0  0  0  0  0  0  0999 V2000
    0.6756   -1.0837    2.5723 Cl  0  0  0  0  0  0  0  0  0  0  0  0
    1.4605   -0.4694    1.1202 C   0  0  0  0  0  0  0  0  0  0  0  0
    2.8602   -0.4746    1.0727 C   0  0  0  0  0  0  0  0  0  0  0  0
    3.5305   -0.0502   -0.0780 C   0  0  0  0  0  0  0  0  0  0  0  0
    5.2840   -0.0621   -0.1274 Cl  0  0  0  0  0  0  0  0  0  0  0  0
    2.8031    0.3759   -1.1916 C   0  0  0  0  0  0  0  0  0  0  0  0
    1.4067    0.3848   -1.1548 C   0  0  0  0  0  0  0  0  0  0  0  0
    0.7201   -0.0277    0.0004 C   0  0  0  0  0  0  0  0  0  0  0  0
   -0.7597    0.0089    0.0100 C   0  0  0  0  0  0  0  0  0  0  0  0
   -1.4893   -0.6703   -0.9807 C   0  0  0  0  0  0  0  0  0  0  0  0
   -2.8869   -0.6230   -0.9839 C   0  0  0  0  0  0  0  0  0  0  0  0
   -3.5655    0.1083   -0.0053 C   0  0  0  0  0  0  0  0  0  0  0  0
   -2.8475    0.7969    0.9760 C   0  0  0  0  0  0  0  0  0  0  0  0
   -1.4499    0.7523    0.9831 C   0  0  0  0  0  0  0  0  0  0  0  0
  1  2  1  0
  2  3  2  0
  2  8  1  0
  3  4  1  0
  4  6  2  0
  4  5  1  0
  6  7  1  0
  7  8  2  0
  8  9  1  0
  9 14  1  0
  9 10  2  0
 10 11  1  0
 11 12  2  0
 12 13  1  0
 13 14  2  0
M  END
$$$$
