ClC(Cl)=C(c1ccc(Cl)cc1)c(cccc2)c2Cl
     RDKit          3D

 18 19  0  0  0  0  0  0  0  0999 V2000
   -1.8626   -3.0976   -1.1313 Cl  0  0  0  0  0  0  0  0  0  0  0  0
   -0.3045   -2.2760   -1.1261 C   0  0  0  0  0  0  0  0  0  0  0  0
    1.0237   -3.1198   -1.9164 Cl  0  0  0  0  0  0  0  0  0  0  0  0
   -0.1499   -1.0558   -0.5705 C   0  0  0  0  0  0  0  0  0  0  0  0
    1.1777   -0.4053   -0.4707 C   0  0  0  0  0  0  0  0  0  0  0  0
    1.3659    0.8884   -0.9851 C   0  0  0  0  0  0  0  0  0  0  0  0
    2.6063    1.5221   -0.8651 C   0  0  0  0  0  0  0  0  0  0  0  0
    3.6649    0.8756   -0.2192 C   0  0  0  0  0  0  0  0  0  0  0  0
    5.2197    1.6734   -0.0677 Cl  0  0  0  0  0  0  0  0  0  0  0  0
    3.4802   -0.4046    0.3124 C   0  0  0  0  0  0  0  0  0  0  0  0
    2.2411   -1.0410    0.1938 C   0  0  0  0  0  0  0  0  0  0  0  0
   -1.3090   -0.3264   -0.0093 C   0  0  0  0  0  0  0  0  0  0  0  0
   -1.4131   -0.1814    1.3832 C   0  0  0  0  0  0  0  0  0  0  0  0
   -2.4904    0.5107    1.9423 C   0  0  0  0  0  0  0  0  0  0  0  0
   -3.4666    1.0713    1.1161 C   0  0  0  0  0  0  0  0  0  0  0  0
   -3.3648    0.9468   -0.2718 C   0  0  0  0  0  0  0  0  0  0  0  0
   -2.2892    0.2551   -0.8421 C   0  0  0  0  0  0  0  0  0  0  0  0
   -2.1780    0.1673   -2.5971 Cl  0  0  0  0  0  0  0  0  0  0  0  0
  1  2  1  0
  2  4  2  0
  2  3  1  0
  4  5  1  0
  4 12  1  0
  5 11  1  0
  5  6  2  0
  6  7  1  0
  7  8  2  0
  8 10  1  0
  8  9  1  0
 10 11  2  0
 12 13  2  0
 12 17  1  0
 13 14  1  0
 14 15  2  0
 15 16  1  0
 16 17  2  0
 17 18  1  0
M  END
$$$$
