C#CCCCCCCC
     RDKit          3D

  9  8  0  0  0  0  0  0  0  0999 V2000
   -5.1412   -0.1596   -1.4595 C   0  0  0  0  0  0  0  0  0  0  0  0
   -4.2251   -0.4411   -0.7281 C   0  0  0  0  0  0  0  0  0  0  0  0
   -3.1106   -0.7840    0.1624 C   0  0  0  0  0  0  0  0  0  0  0  0
   -1.8354   -0.0572   -0.2726 C   0  0  0  0  0  0  0  0  0  0  0  0
   -0.6620   -0.4072    0.6503 C   0  0  0  0  0  0  0  0  0  0  0  0
    0.6164    0.3207    0.2171 C   0  0  0  0  0  0  0  0  0  0  0  0
    1.7925   -0.0395    1.1369 C   0  0  0  0  0  0  0  0  0  0  0  0
    3.0627    0.7618    0.8123 C   0  0  0  0  0  0  0  0  0  0  0  0
    3.7046    0.3427   -0.5100 C   0  0  0  0  0  0  0  0  0  0  0  0
  1  2  3  0
  2  3  1  0
  3  4  1  0
  4  5  1  0
  5  6  1  0
  6  7  1  0
  7  8  1  0
  8  9  1  0
M  END
$$$$
