
     RDKit          3D

 14 15  0  0  0  0  0  0  0  0999 V2000
    0.7648   -1.1290    2.5443 Cl  0  0  0  0  0  0  0  0  0  0  0  0
    1.5185   -0.3167    1.1754 C   0  0  0  0  0  0  0  0  0  0  0  0
    2.9045   -0.1170    1.2060 C   0  0  0  0  0  0  0  0  0  0  0  0
    3.5575    0.4715    0.1209 C   0  0  0  0  0  0  0  0  0  0  0  0
    2.8308    0.8585   -1.0059 C   0  0  0  0  0  0  0  0  0  0  0  0
    1.4480    0.6641   -1.0482 C   0  0  0  0  0  0  0  0  0  0  0  0
    0.7752    0.0842    0.0419 C   0  0  0  0  0  0  0  0  0  0  0  0
   -0.6926   -0.0935   -0.0298 C   0  0  0  0  0  0  0  0  0  0  0  0
   -1.2663   -0.8060   -1.0964 C   0  0  0  0  0  0  0  0  0  0  0  0
   -2.6536   -0.9612   -1.1761 C   0  0  0  0  0  0  0  0  0  0  0  0
   -3.4797   -0.3995   -0.1973 C   0  0  0  0  0  0  0  0  0  0  0  0
   -5.2199   -0.5943   -0.2995 Cl  0  0  0  0  0  0  0  0  0  0  0  0
   -2.9169    0.3219    0.8605 C   0  0  0  0  0  0  0  0  0  0  0  0
   -1.5300    0.4787    0.9429 C   0  0  0  0  0  0  0  0  0  0  0  0
  1  2  1  0
  2  3  2  0
  2  7  1  0
  3  4  1  0
  4  5  2  0
  5  6  1  0
  6  7  2  0
  7  8  1  0
  8 14  1  0
  8  9  2  0
  9 10  1  0
 10 11  2  0
 11 13  1  0
 11 12  1  0
 13 14  2  0
M  END
$$$$
