Clc1cc(Cl)c(c2ccccc2)c(Cl)c1
     RDKit          3D

 15 16  0  0  0  0  0  0  0  0999 V2000
    5.1911   -0.9629    0.5605 Cl  0  0  0  0  0  0  0  0  0  0  0  0
    3.4722   -0.6440    0.4164 C   0  0  0  0  0  0  0  0  0  0  0  0
    2.6759   -0.5773    1.5617 C   0  0  0  0  0  0  0  0  0  0  0  0
    1.3041   -0.3235    1.4555 C   0  0  0  0  0  0  0  0  0  0  0  0
    0.3570   -0.2150    2.9367 Cl  0  0  0  0  0  0  0  0  0  0  0  0
    0.7172   -0.1330    0.1855 C   0  0  0  0  0  0  0  0  0  0  0  0
   -0.7314    0.1357    0.0641 C   0  0  0  0  0  0  0  0  0  0  0  0
   -1.6652   -0.8665    0.3731 C   0  0  0  0  0  0  0  0  0  0  0  0
   -3.0350   -0.6103    0.2579 C   0  0  0  0  0  0  0  0  0  0  0  0
   -3.4795    0.6454   -0.1662 C   0  0  0  0  0  0  0  0  0  0  0  0
   -2.5548    1.6471   -0.4755 C   0  0  0  0  0  0  0  0  0  0  0  0
   -1.1842    1.3950   -0.3611 C   0  0  0  0  0  0  0  0  0  0  0  0
    1.5297   -0.2021   -0.9671 C   0  0  0  0  0  0  0  0  0  0  0  0
    0.8577   -0.0103   -2.5840 Cl  0  0  0  0  0  0  0  0  0  0  0  0
    2.8999   -0.4569   -0.8436 C   0  0  0  0  0  0  0  0  0  0  0  0
  1  2  1  0
  2 15  2  0
  2  3  1  0
  3  4  2  0
  4  6  1  0
  4  5  1  0
  6 13  2  0
  6  7  1  0
  7 12  1  0
  7  8  2  0
  8  9  1  0
  9 10  2  0
 10 11  1  0
 11 12  2  0
 13 15  1  0
 13 14  1  0
M  END
$$$$
