Clc1c(Cl)c(Cl)c(Cl)c(c2cc(Cl)c(Cl)c(Cl)c2Cl)c1
     RDKit          3D

 20 21  0  0  0  0  0  0  0  0999 V2000
    3.4831    2.5540   -1.5396 Cl  0  0  0  0  0  0  0  0  0  0  0  0
    2.7552    1.1802   -0.7161 C   0  0  0  0  0  0  0  0  0  0  0  0
    3.5450    0.1749   -0.1346 C   0  0  0  0  0  0  0  0  0  0  0  0
    5.3042    0.2775   -0.2219 Cl  0  0  0  0  0  0  0  0  0  0  0  0
    2.9287   -0.9100    0.5171 C   0  0  0  0  0  0  0  0  0  0  0  0
    3.9174   -2.1730    1.2537 Cl  0  0  0  0  0  0  0  0  0  0  0  0
    1.5240   -0.9860    0.5838 C   0  0  0  0  0  0  0  0  0  0  0  0
    0.7519   -2.3316    1.4293 Cl  0  0  0  0  0  0  0  0  0  0  0  0
    0.7387    0.0267   -0.0030 C   0  0  0  0  0  0  0  0  0  0  0  0
   -0.7385   -0.0274    0.0350 C   0  0  0  0  0  0  0  0  0  0  0  0
   -1.4038   -0.9812   -0.7459 C   0  0  0  0  0  0  0  0  0  0  0  0
   -2.7980   -1.0545   -0.7454 C   0  0  0  0  0  0  0  0  0  0  0  0
   -3.5784   -2.2738   -1.7451 Cl  0  0  0  0  0  0  0  0  0  0  0  0
   -3.5484   -0.1650    0.0409 C   0  0  0  0  0  0  0  0  0  0  0  0
   -5.3102   -0.2600    0.0384 Cl  0  0  0  0  0  0  0  0  0  0  0  0
   -2.8905    0.7979    0.8294 C   0  0  0  0  0  0  0  0  0  0  0  0
   -3.8295    1.9143    1.8231 Cl  0  0  0  0  0  0  0  0  0  0  0  0
   -1.4840    0.8684    0.8275 C   0  0  0  0  0  0  0  0  0  0  0  0
   -0.6583    2.0565    1.8416 Cl  0  0  0  0  0  0  0  0  0  0  0  0
    1.3630    1.1014   -0.6492 C   0  0  0  0  0  0  0  0  0  0  0  0
  1  2  1  0
  2 20  2  0
  2  3  1  0
  3  4  1  0
  3  5  2  0
  5  7  1  0
  5  6  1  0
  7  9  2  0
  7  8  1  0
  9 20  1  0
  9 10  1  0
 10 11  2  0
 10 18  1  0
 11 12  1  0
 12 14  2  0
 12 13  1  0
 14 16  1  0
 14 15  1  0
 16 17  1  0
 16 18  2  0
 18 19  1  0
M  END
$$$$
