O=C(C5)N(C4C2(CC7)C(N7C6)CC3C6=CCOC5C34)c1c2cc(OC)c(OC)c1
     RDKit          3D

 29 35  0  0  1  0  0  0  0  0999 V2000
    1.0631    3.5215    1.4616 O   0  0  0  0  0  0  0  0  0  0  0  0
    0.2017    2.6222    1.2771 C   0  0  0  0  0  0  0  0  0  0  0  0
   -1.1366    2.6475    2.0399 C   0  0  0  0  0  0  0  0  0  0  0  0
    0.4664    1.5169    0.3905 N   0  0  0  0  0  0  0  0  0  0  0  0
   -0.4012    0.3968    0.5490 C   0  0  2  0  0  0  0  0  0  0  0  0
   -0.0669   -0.6686   -0.5113 C   0  0  2  0  0  0  0  0  0  0  0  0
   -0.4179   -0.2987   -1.9656 C   0  0  0  0  0  0  0  0  0  0  0  0
   -1.7259   -0.9990   -2.3187 C   0  0  0  0  0  0  0  0  0  0  0  0
   -0.9651   -1.9414   -0.2310 C   0  0  2  0  0  0  0  0  0  0  0  0
   -2.0568   -1.9684   -1.2630 N   0  0  0  0  0  0  0  0  0  0  0  0
   -3.4934   -1.8404   -0.7970 C   0  0  0  0  0  0  0  0  0  0  0  0
   -1.6232   -1.8955    1.1671 C   0  0  0  0  0  0  0  0  0  0  0  0
   -2.5184   -0.6058    1.2051 C   0  0  2  0  0  0  0  0  0  0  0  0
   -3.6865   -0.8103    0.3304 C   0  0  0  0  0  0  0  0  0  0  0  0
   -4.6404    0.1613    0.2944 C   0  0  0  0  0  0  0  0  0  0  0  0
   -4.6113    1.5090    1.0739 C   0  0  0  0  0  0  0  0  0  0  0  0
   -3.4898    1.7870    1.9371 O   0  0  0  0  0  0  0  0  0  0  0  0
   -2.2878    2.0045    1.2007 C   0  0  2  0  0  0  0  0  0  0  0  0
   -1.8519    0.6737    0.5797 C   0  0  1  0  0  0  0  0  0  0  0  0
    1.6789    0.8189    0.0463 C   0  0  0  0  0  0  0  0  0  0  0  0
    1.4231   -0.5013   -0.3622 C   0  0  0  0  0  0  0  0  0  0  0  0
    2.4552   -1.3587   -0.7235 C   0  0  0  0  0  0  0  0  0  0  0  0
    3.7880   -0.8973   -0.6137 C   0  0  0  0  0  0  0  0  0  0  0  0
    4.8806   -1.7145   -0.9437 O   0  0  0  0  0  0  0  0  0  0  0  0
    4.7717   -3.0568   -1.4063 C   0  0  0  0  0  0  0  0  0  0  0  0
    4.0516    0.4218   -0.1672 C   0  0  0  0  0  0  0  0  0  0  0  0
    5.3911    0.8308   -0.0711 O   0  0  0  0  0  0  0  0  0  0  0  0
    5.8113    2.1210    0.3606 C   0  0  0  0  0  0  0  0  0  0  0  0
    2.9833    1.2892    0.1660 C   0  0  0  0  0  0  0  0  0  0  0  0
  1  2  2  0
  2  3  1  0
  2  4  1  0
 18  3  1  1
  5  4  1  6
  4 20  1  0
  5 19  1  0
  5  6  1  0
  6  7  1  6
  6 21  1  0
  6  9  1  0
  7  8  1  0
  9 12  1  1
  9 10  1  0
 10  8  1  0
 10 11  1  0
 11 14  1  0
 13 12  1  6
 19 13  1  1
 13 14  1  0
 14 15  2  0
 15 16  1  0
 16 17  1  0
 17 18  1  0
 18 19  1  0
 20 29  1  0
 20 21  2  0
 21 22  1  0
 22 23  2  0
 23 26  1  0
 23 24  1  0
 24 25  1  0
 26 29  2  0
 26 27  1  0
 27 28  1  0
M  END
$$$$
