O=C(N1)NC(C(CC)(C3=CC2CCC(C3)C2)C1=O)=O
     RDKit          3D

 19 21  0  0  1  0  0  0  0  0999 V2000
   -4.4490    2.8816    0.0236 O   0  0  0  0  0  0  0  0  0  0  0  0
   -3.4915    2.0675   -0.0584 C   0  0  0  0  0  0  0  0  0  0  0  0
   -3.0577    1.3589    1.0967 N   0  0  0  0  0  0  0  0  0  0  0  0
   -2.8293    1.8693   -1.3022 N   0  0  0  0  0  0  0  0  0  0  0  0
   -1.7568    0.9322   -1.4312 C   0  0  0  0  0  0  0  0  0  0  0  0
   -1.3749   -0.0202   -0.3039 C   0  0  0  0  0  0  0  0  0  0  0  0
   -1.9705   -1.4173   -0.6722 C   0  0  0  0  0  0  0  0  0  0  0  0
   -1.6397   -2.5492    0.3107 C   0  0  0  0  0  0  0  0  0  0  0  0
    0.1665    0.0105   -0.1909 C   0  0  0  0  0  0  0  0  0  0  0  0
    0.9569   -0.8514   -0.8935 C   0  0  0  0  0  0  0  0  0  0  0  0
    2.4687   -0.7708   -0.8059 C   0  0  2  0  0  0  0  0  0  0  0  0
    2.9218   -1.2383    0.5808 C   0  0  0  0  0  0  0  0  0  0  0  0
    2.8384    0.0091    1.4680 C   0  0  0  0  0  0  0  0  0  0  0  0
    2.3781    1.1393    0.5340 C   0  0  2  0  0  0  0  0  0  0  0  0
    0.8293    1.2225    0.4927 C   0  0  0  0  0  0  0  0  0  0  0  0
    2.8727    0.6927   -0.8329 C   0  0  0  0  0  0  0  0  0  0  0  0
   -1.9904    0.4098    1.0277 C   0  0  0  0  0  0  0  0  0  0  0  0
   -1.5798   -0.1127    2.1002 O   0  0  0  0  0  0  0  0  0  0  0  0
   -1.1547    0.8537   -2.5374 O   0  0  0  0  0  0  0  0  0  0  0  0
  1  2  2  0
  2  3  1  0
  2  4  1  0
  3 17  1  0
  4  5  1  0
  5  6  1  0
  5 19  2  0
  6  7  1  0
  6  9  1  0
  6 17  1  0
  7  8  1  0
  9 15  1  0
  9 10  2  0
 11 10  1  1
 11 12  1  0
 11 16  1  0
 12 13  1  0
 14 13  1  1
 14 16  1  0
 14 15  1  0
 17 18  2  0
M  END
$$$$
