OC(CCC(c1ccc(c2ccccc2)cc1)=O)=O
     RDKit          3D

 19 20  0  0  0  0  0  0  0  0999 V2000
   -3.7104    0.8749   -1.5591 O   0  0  0  0  0  0  0  0  0  0  0  0
   -3.2935   -0.4320   -1.7909 C   0  0  0  0  0  0  0  0  0  0  0  0
   -4.0357   -1.5730   -1.1673 C   0  0  0  0  0  0  0  0  0  0  0  0
   -3.7567   -1.6967    0.3371 C   0  0  0  0  0  0  0  0  0  0  0  0
   -2.3694   -2.2219    0.6186 C   0  0  0  0  0  0  0  0  0  0  0  0
   -1.1465   -1.3848    0.4939 C   0  0  0  0  0  0  0  0  0  0  0  0
   -1.1902    0.0150    0.6292 C   0  0  0  0  0  0  0  0  0  0  0  0
   -0.0273    0.7791    0.5001 C   0  0  0  0  0  0  0  0  0  0  0  0
    1.2090    0.1633    0.2429 C   0  0  0  0  0  0  0  0  0  0  0  0
    2.4438    0.9770    0.1032 C   0  0  0  0  0  0  0  0  0  0  0  0
    3.6579    0.5385    0.6656 C   0  0  0  0  0  0  0  0  0  0  0  0
    4.8185    1.3070    0.5324 C   0  0  0  0  0  0  0  0  0  0  0  0
    4.7816    2.5180   -0.1622 C   0  0  0  0  0  0  0  0  0  0  0  0
    3.5837    2.9637   -0.7250 C   0  0  0  0  0  0  0  0  0  0  0  0
    2.4198    2.1999   -0.5942 C   0  0  0  0  0  0  0  0  0  0  0  0
    1.2568   -1.2356    0.1223 C   0  0  0  0  0  0  0  0  0  0  0  0
    0.0938   -1.9998    0.2493 C   0  0  0  0  0  0  0  0  0  0  0  0
   -2.2506   -3.4309    0.9583 O   0  0  0  0  0  0  0  0  0  0  0  0
   -2.2804   -0.6523   -2.5073 O   0  0  0  0  0  0  0  0  0  0  0  0
  1  2  1  0
  2  3  1  0
  2 19  2  0
  3  4  1  0
  4  5  1  0
  5  6  1  0
  5 18  2  0
  6 17  2  0
  6  7  1  0
  7  8  2  0
  8  9  1  0
  9 16  2  0
  9 10  1  0
 10 15  1  0
 10 11  2  0
 11 12  1  0
 12 13  2  0
 13 14  1  0
 14 15  2  0
 16 17  1  0
M  END
$$$$
