Fc1cc(F)ccc1
     RDKit          3D

  8  8  0  0  0  0  0  0  0  0999 V2000
    2.5859   -0.9179   -0.0173 F   0  0  0  0  0  0  0  0  0  0  0  0
    1.3115   -0.4553   -0.0088 C   0  0  0  0  0  0  0  0  0  0  0  0
    0.2402   -1.3555    0.0081 C   0  0  0  0  0  0  0  0  0  0  0  0
   -1.0752   -0.8780    0.0168 C   0  0  0  0  0  0  0  0  0  0  0  0
   -2.1131   -1.7502    0.0332 F   0  0  0  0  0  0  0  0  0  0  0  0
   -1.3190    0.4998    0.0086 C   0  0  0  0  0  0  0  0  0  0  0  0
   -0.2480    1.3997   -0.0084 C   0  0  0  0  0  0  0  0  0  0  0  0
    1.0670    0.9225   -0.0171 C   0  0  0  0  0  0  0  0  0  0  0  0
  1  2  1  0
  2  8  2  0
  2  3  1  0
  3  4  2  0
  4  6  1  0
  4  5  1  0
  6  7  2  0
  7  8  1  0
M  END
$$$$
