CC(N(C(Nc1ccc(Cl)cc1)=O)C)C#C
     RDKit          3D

 16 16  0  0  1  0  0  0  0  0999 V2000
    3.2531    1.0002   -0.9197 C   0  0  0  0  0  0  0  0  0  0  0  0
    3.0217    0.3357    0.4403 C   0  0  1  0  0  0  0  0  0  0  0  0
    1.6223    0.5067    0.8851 N   0  0  0  0  0  0  0  0  0  0  0  0
    0.5221   -0.1318    0.1889 C   0  0  0  0  0  0  0  0  0  0  0  0
   -0.8321    0.0156    0.6543 N   0  0  0  0  0  0  0  0  0  0  0  0
   -1.9867   -0.2180   -0.1711 C   0  0  0  0  0  0  0  0  0  0  0  0
   -3.1775   -0.6692    0.4200 C   0  0  0  0  0  0  0  0  0  0  0  0
   -4.3188   -0.8825   -0.3590 C   0  0  0  0  0  0  0  0  0  0  0  0
   -4.2855   -0.6333   -1.7344 C   0  0  0  0  0  0  0  0  0  0  0  0
   -5.7189   -0.8985   -2.7102 Cl  0  0  0  0  0  0  0  0  0  0  0  0
   -3.1107   -0.1629   -2.3292 C   0  0  0  0  0  0  0  0  0  0  0  0
   -1.9675    0.0505   -1.5527 C   0  0  0  0  0  0  0  0  0  0  0  0
    0.7508   -0.8552   -0.8190 O   0  0  0  0  0  0  0  0  0  0  0  0
    1.3394    1.3835    2.0282 C   0  0  0  0  0  0  0  0  0  0  0  0
    3.3886   -1.0894    0.3999 C   0  0  0  0  0  0  0  0  0  0  0  0
    3.6893   -2.2566    0.3680 C   0  0  0  0  0  0  0  0  0  0  0  0
  2  1  1  6
  2 15  1  0
  2  3  1  0
  3 14  1  0
  3  4  1  0
  4  5  1  0
  4 13  2  0
  5  6  1  0
  6 12  2  0
  6  7  1  0
  7  8  2  0
  8  9  1  0
  9 11  2  0
  9 10  1  0
 11 12  1  0
 15 16  3  0
M  END
$$$$
