O=C(N(CC=C)CC=C)C(Cl)Cl
     RDKit          3D

 12 11  0  0  0  0  0  0  0  0999 V2000
   -1.1021    1.1657    1.5564 O   0  0  0  0  0  0  0  0  0  0  0  0
   -0.3368    1.1878    0.5527 C   0  0  0  0  0  0  0  0  0  0  0  0
   -0.0357   -0.0546   -0.1332 N   0  0  0  0  0  0  0  0  0  0  0  0
    0.9838   -0.1539   -1.1909 C   0  0  0  0  0  0  0  0  0  0  0  0
    2.2478   -0.7696   -0.6568 C   0  0  0  0  0  0  0  0  0  0  0  0
    2.9830   -0.1735    0.2856 C   0  0  0  0  0  0  0  0  0  0  0  0
   -0.7093   -1.2898    0.2947 C   0  0  0  0  0  0  0  0  0  0  0  0
   -2.1505   -1.2643   -0.1336 C   0  0  0  0  0  0  0  0  0  0  0  0
   -3.1521   -1.3479    0.7463 C   0  0  0  0  0  0  0  0  0  0  0  0
    0.1712    2.5224    0.0634 C   0  0  0  0  0  0  0  0  0  0  0  0
   -0.0063    3.7969    1.3027 Cl  0  0  0  0  0  0  0  0  0  0  0  0
   -0.7395    3.0094   -1.3871 Cl  0  0  0  0  0  0  0  0  0  0  0  0
  1  2  2  0
  2 10  1  0
  2  3  1  0
  3  4  1  0
  3  7  1  0
  4  5  1  0
  5  6  2  0
  7  8  1  0
  8  9  2  0
 10 12  1  0
 10 11  1  0
M  END
$$$$
