OC(CN1C(Sc2c1c(Cl)ccc2)=O)=O
     RDKit          3D

 15 16  0  0  0  0  0  0  0  0999 V2000
   -3.2263   -1.9614    0.1819 O   0  0  0  0  0  0  0  0  0  0  0  0
   -2.5799   -0.7318    0.2632 C   0  0  0  0  0  0  0  0  0  0  0  0
   -1.8925   -0.1541   -0.9411 C   0  0  0  0  0  0  0  0  0  0  0  0
   -0.7643    0.7065   -0.5490 N   0  0  0  0  0  0  0  0  0  0  0  0
   -0.8479    2.0664   -0.5901 C   0  0  0  0  0  0  0  0  0  0  0  0
    0.5561    2.8340   -0.0737 S   0  0  0  0  0  0  0  0  0  0  0  0
    1.3200    1.3723    0.2240 C   0  0  0  0  0  0  0  0  0  0  0  0
    0.4705    0.3057   -0.0844 C   0  0  0  0  0  0  0  0  0  0  0  0
    0.9507   -1.0201    0.1034 C   0  0  0  0  0  0  0  0  0  0  0  0
    0.0424   -2.4863   -0.2398 Cl  0  0  0  0  0  0  0  0  0  0  0  0
    2.2572   -1.2018    0.5958 C   0  0  0  0  0  0  0  0  0  0  0  0
    3.0789   -0.1055    0.8964 C   0  0  0  0  0  0  0  0  0  0  0  0
    2.6109    1.1965    0.7096 C   0  0  0  0  0  0  0  0  0  0  0  0
   -1.8746    2.6926   -0.9666 O   0  0  0  0  0  0  0  0  0  0  0  0
   -2.6297   -0.0792    1.3394 O   0  0  0  0  0  0  0  0  0  0  0  0
  1  2  1  0
  2  3  1  0
  2 15  2  0
  3  4  1  0
  4  8  1  0
  4  5  1  0
  5 14  2  0
  5  6  1  0
  6  7  1  0
  7 13  1  0
  7  8  2  0
  8  9  1  0
  9 11  2  0
  9 10  1  0
 11 12  1  0
 12 13  2  0
M  END
$$$$
