Clc1ccc(c2ccc(c(Cl)c2Cl)Cl)c(Cl)c1Cl
     RDKit          3D

 18 19  0  0  0  0  0  0  0  0999 V2000
    5.2531    0.7406   -0.2695 Cl  0  0  0  0  0  0  0  0  0  0  0  0
    3.5138    0.4872   -0.1966 C   0  0  0  0  0  0  0  0  0  0  0  0
    2.6953    1.1985   -1.0778 C   0  0  0  0  0  0  0  0  0  0  0  0
    1.3121    1.0235   -1.0512 C   0  0  0  0  0  0  0  0  0  0  0  0
    0.7286    0.1291   -0.1442 C   0  0  0  0  0  0  0  0  0  0  0  0
   -0.7391   -0.0362   -0.1463 C   0  0  0  0  0  0  0  0  0  0  0  0
   -1.5362    0.9716    0.4122 C   0  0  0  0  0  0  0  0  0  0  0  0
   -2.9247    0.8434    0.4303 C   0  0  0  0  0  0  0  0  0  0  0  0
   -3.5360   -0.2895   -0.1132 C   0  0  0  0  0  0  0  0  0  0  0  0
   -2.7505   -1.3052   -0.6871 C   0  0  0  0  0  0  0  0  0  0  0  0
   -3.5246   -2.7303   -1.3815 Cl  0  0  0  0  0  0  0  0  0  0  0  0
   -1.3475   -1.1784   -0.7079 C   0  0  0  0  0  0  0  0  0  0  0  0
   -0.3573   -2.4344   -1.4578 Cl  0  0  0  0  0  0  0  0  0  0  0  0
   -5.2906   -0.4065   -0.0652 Cl  0  0  0  0  0  0  0  0  0  0  0  0
    1.5456   -0.5850    0.7573 C   0  0  0  0  0  0  0  0  0  0  0  0
    0.8195   -1.6803    1.9379 Cl  0  0  0  0  0  0  0  0  0  0  0  0
    2.9428   -0.4066    0.7272 C   0  0  0  0  0  0  0  0  0  0  0  0
    3.9769   -1.2965    1.8455 Cl  0  0  0  0  0  0  0  0  0  0  0  0
  1  2  1  0
  2  3  2  0
  2 17  1  0
  3  4  1  0
  4  5  2  0
  5  6  1  0
  5 15  1  0
  6  7  2  0
  6 12  1  0
  7  8  1  0
  8  9  2  0
  9 10  1  0
  9 14  1  0
 10 11  1  0
 10 12  2  0
 12 13  1  0
 15 16  1  0
 15 17  2  0
 17 18  1  0
M  END
$$$$
