Clc1ccc(Cl)c(c1Cl)c2c(Cl)ccc(Cl)c2Cl
     RDKit          3D

 18 19  0  0  0  0  0  0  0  0999 V2000
    3.8450   -2.5933    0.1141 Cl  0  0  0  0  0  0  0  0  0  0  0  0
    2.8943   -1.1169    0.0018 C   0  0  0  0  0  0  0  0  0  0  0  0
    3.5461    0.1093    0.1220 C   0  0  0  0  0  0  0  0  0  0  0  0
    2.8690    1.2770   -0.2149 C   0  0  0  0  0  0  0  0  0  0  0  0
    1.4988    1.2390   -0.4952 C   0  0  0  0  0  0  0  0  0  0  0  0
    0.9063    2.5035   -1.5751 Cl  0  0  0  0  0  0  0  0  0  0  0  0
    0.7571    0.0510   -0.2458 C   0  0  0  0  0  0  0  0  0  0  0  0
    1.5188   -1.1512   -0.2936 C   0  0  0  0  0  0  0  0  0  0  0  0
    0.9155   -2.5740   -1.1575 Cl  0  0  0  0  0  0  0  0  0  0  0  0
   -0.7582    0.0525   -0.0539 C   0  0  0  0  0  0  0  0  0  0  0  0
   -1.5248    1.2504   -0.0196 C   0  0  0  0  0  0  0  0  0  0  0  0
   -0.9606    2.6996    0.8157 Cl  0  0  0  0  0  0  0  0  0  0  0  0
   -2.8949    1.2093   -0.2996 C   0  0  0  0  0  0  0  0  0  0  0  0
   -3.5471   -0.0137   -0.4209 C   0  0  0  0  0  0  0  0  0  0  0  0
   -2.8703   -1.1849   -0.0846 C   0  0  0  0  0  0  0  0  0  0  0  0
   -3.7900   -2.6769    0.0707 Cl  0  0  0  0  0  0  0  0  0  0  0  0
   -1.4949   -1.1373    0.2096 C   0  0  0  0  0  0  0  0  0  0  0  0
   -0.8639   -2.3698    1.3129 Cl  0  0  0  0  0  0  0  0  0  0  0  0
  1  2  1  0
  2  3  2  0
  2  8  1  0
  3  4  1  0
  4  5  2  0
  5  7  1  0
  5  6  1  0
  7 10  1  0
  7  8  2  0
  8  9  1  0
 10 11  2  0
 10 17  1  0
 11 13  1  0
 11 12  1  0
 13 14  2  0
 14 15  1  0
 15 16  1  0
 15 17  2  0
 17 18  1  0
M  END
$$$$
