Clc1c(Cl)cccc1c2c(Cl)c(Cl)ccc2
     RDKit          3D

 16 17  0  0  0  0  0  0  0  0999 V2000
   -0.7368    1.3639   -2.2669 Cl  0  0  0  0  0  0  0  0  0  0  0  0
   -1.5026    0.4225   -0.9844 C   0  0  0  0  0  0  0  0  0  0  0  0
   -2.8886    0.1791   -1.0249 C   0  0  0  0  0  0  0  0  0  0  0  0
   -3.8920    0.8192   -2.3203 Cl  0  0  0  0  0  0  0  0  0  0  0  0
   -3.4940   -0.5879   -0.0238 C   0  0  0  0  0  0  0  0  0  0  0  0
   -2.7295   -1.1162    1.0171 C   0  0  0  0  0  0  0  0  0  0  0  0
   -1.3551   -0.8799    1.0658 C   0  0  0  0  0  0  0  0  0  0  0  0
   -0.7309   -0.1124    0.0701 C   0  0  0  0  0  0  0  0  0  0  0  0
    0.7245    0.1325    0.1580 C   0  0  0  0  0  0  0  0  0  0  0  0
    1.6574   -0.9059   -0.0547 C   0  0  0  0  0  0  0  0  0  0  0  0
    1.1095   -2.5281   -0.4858 Cl  0  0  0  0  0  0  0  0  0  0  0  0
    3.0349   -0.6360    0.0525 C   0  0  0  0  0  0  0  0  0  0  0  0
    4.2362   -1.8943   -0.2083 Cl  0  0  0  0  0  0  0  0  0  0  0  0
    3.4727    0.6544    0.3689 C   0  0  0  0  0  0  0  0  0  0  0  0
    2.5492    1.6793    0.5779 C   0  0  0  0  0  0  0  0  0  0  0  0
    1.1818    1.4212    0.4743 C   0  0  0  0  0  0  0  0  0  0  0  0
  1  2  1  0
  2  8  2  0
  2  3  1  0
  3  4  1  0
  3  5  2  0
  5  6  1  0
  6  7  2  0
  7  8  1  0
  8  9  1  0
  9 16  1  0
  9 10  2  0
 10 11  1  0
 10 12  1  0
 12 14  2  0
 12 13  1  0
 14 15  1  0
 15 16  2  0
M  END
$$$$
