Clc1cc(c2cc(Cl)ccc2Cl)ccc1
     RDKit          3D

 15 16  0  0  0  0  0  0  0  0999 V2000
   -3.8873    1.6930    1.7966 Cl  0  0  0  0  0  0  0  0  0  0  0  0
   -2.9011    0.5872    0.8577 C   0  0  0  0  0  0  0  0  0  0  0  0
   -1.5194    0.7891    0.7641 C   0  0  0  0  0  0  0  0  0  0  0  0
   -0.7239   -0.0907    0.0101 C   0  0  0  0  0  0  0  0  0  0  0  0
    0.7403    0.1076   -0.0788 C   0  0  0  0  0  0  0  0  0  0  0  0
    1.5968   -0.9316    0.3249 C   0  0  0  0  0  0  0  0  0  0  0  0
    2.9846   -0.7711    0.2667 C   0  0  0  0  0  0  0  0  0  0  0  0
    4.0410   -2.0730    0.7827 Cl  0  0  0  0  0  0  0  0  0  0  0  0
    3.5298    0.4269   -0.2006 C   0  0  0  0  0  0  0  0  0  0  0  0
    2.6903    1.4625   -0.6160 C   0  0  0  0  0  0  0  0  0  0  0  0
    1.2992    1.3125   -0.5618 C   0  0  0  0  0  0  0  0  0  0  0  0
    0.2965    2.6278   -1.1673 Cl  0  0  0  0  0  0  0  0  0  0  0  0
   -1.3279   -1.1863   -0.6297 C   0  0  0  0  0  0  0  0  0  0  0  0
   -2.7083   -1.3853   -0.5338 C   0  0  0  0  0  0  0  0  0  0  0  0
   -3.4947   -0.4990    0.2068 C   0  0  0  0  0  0  0  0  0  0  0  0
  1  2  1  0
  2 15  2  0
  2  3  1  0
  3  4  2  0
  4 13  1  0
  4  5  1  0
  5  6  2  0
  5 11  1  0
  6  7  1  0
  7  9  2  0
  7  8  1  0
  9 10  1  0
 10 11  2  0
 11 12  1  0
 13 14  2  0
 14 15  1  0
M  END
$$$$
