Clc(cccc2)c2c1ccc(Cl)c(Cl)c1
     RDKit          3D

 15 16  0  0  0  0  0  0  0  0999 V2000
   -0.8135    0.0231    2.7591 Cl  0  0  0  0  0  0  0  0  0  0  0  0
   -1.5612   -0.0225    1.1651 C   0  0  0  0  0  0  0  0  0  0  0  0
   -2.9590   -0.0714    1.0911 C   0  0  0  0  0  0  0  0  0  0  0  0
   -3.5981   -0.1649   -0.1471 C   0  0  0  0  0  0  0  0  0  0  0  0
   -2.8442   -0.2172   -1.3203 C   0  0  0  0  0  0  0  0  0  0  0  0
   -1.4493   -0.1694   -1.2592 C   0  0  0  0  0  0  0  0  0  0  0  0
   -0.7925   -0.0628   -0.0205 C   0  0  0  0  0  0  0  0  0  0  0  0
    0.6861    0.0008    0.0075 C   0  0  0  0  0  0  0  0  0  0  0  0
    1.4470   -1.0098   -0.6008 C   0  0  0  0  0  0  0  0  0  0  0  0
    2.8426   -0.9451   -0.5898 C   0  0  0  0  0  0  0  0  0  0  0  0
    3.4948    0.1319    0.0202 C   0  0  0  0  0  0  0  0  0  0  0  0
    5.2526    0.1778    0.0140 Cl  0  0  0  0  0  0  0  0  0  0  0  0
    2.7408    1.1546    0.6201 C   0  0  0  0  0  0  0  0  0  0  0  0
    3.5202    2.5312    1.3879 Cl  0  0  0  0  0  0  0  0  0  0  0  0
    1.3426    1.0879    0.6076 C   0  0  0  0  0  0  0  0  0  0  0  0
  1  2  1  0
  2  3  2  0
  2  7  1  0
  3  4  1  0
  4  5  2  0
  5  6  1  0
  6  7  2  0
  7  8  1  0
  8  9  2  0
  8 15  1  0
  9 10  1  0
 10 11  2  0
 11 13  1  0
 11 12  1  0
 13 14  1  0
 13 15  2  0
M  END
$$$$
