OC(CC)C(C)(C)C
     RDKit          3D

  8  7  0  0  1  0  0  0  0  0999 V2000
    0.3384    1.9631    0.8773 O   0  0  0  0  0  0  0  0  0  0  0  0
    0.4651    0.8309    0.0483 C   0  0  1  0  0  0  0  0  0  0  0  0
    1.7309    0.0102    0.4455 C   0  0  0  0  0  0  0  0  0  0  0  0
    2.5739   -0.4059   -0.7621 C   0  0  0  0  0  0  0  0  0  0  0  0
   -0.8839    0.0229    0.0039 C   0  0  0  0  0  0  0  0  0  0  0  0
   -1.9926    0.9378   -0.5650 C   0  0  0  0  0  0  0  0  0  0  0  0
   -1.3284   -0.4550    1.4069 C   0  0  0  0  0  0  0  0  0  0  0  0
   -0.7604   -1.2042   -0.9250 C   0  0  0  0  0  0  0  0  0  0  0  0
  2  1  1  1
  2  3  1  0
  2  5  1  0
  3  4  1  0
  5  6  1  0
  5  7  1  0
  5  8  1  0
M  END
$$$$
