Clc1c(c2cc(Cl)c(Cl)c(Cl)c2Cl)c(Cl)c(Cl)c(Cl)c1Cl
     RDKit          3D

 21 22  0  0  0  0  0  0  0  0999 V2000
    0.6146   -2.1400    1.7166 Cl  0  0  0  0  0  0  0  0  0  0  0  0
    1.4629   -1.0365    0.6270 C   0  0  0  0  0  0  0  0  0  0  0  0
    0.7455   -0.0516   -0.0791 C   0  0  0  0  0  0  0  0  0  0  0  0
   -0.7191    0.0612    0.0898 C   0  0  0  0  0  0  0  0  0  0  0  0
   -1.2249    0.8973    1.0919 C   0  0  0  0  0  0  0  0  0  0  0  0
   -2.6023    1.0274    1.2792 C   0  0  0  0  0  0  0  0  0  0  0  0
   -3.1829    2.0921    2.5538 Cl  0  0  0  0  0  0  0  0  0  0  0  0
   -3.4939    0.3162    0.4587 C   0  0  0  0  0  0  0  0  0  0  0  0
   -5.2339    0.4830    0.6982 Cl  0  0  0  0  0  0  0  0  0  0  0  0
   -2.9942   -0.5272   -0.5519 C   0  0  0  0  0  0  0  0  0  0  0  0
   -4.1093   -1.4230   -1.5856 Cl  0  0  0  0  0  0  0  0  0  0  0  0
   -1.6045   -0.6557   -0.7376 C   0  0  0  0  0  0  0  0  0  0  0  0
   -0.9715   -1.7121   -2.0036 Cl  0  0  0  0  0  0  0  0  0  0  0  0
    1.4249    0.8259   -0.9461 C   0  0  0  0  0  0  0  0  0  0  0  0
    0.5289    2.0639   -1.8343 Cl  0  0  0  0  0  0  0  0  0  0  0  0
    2.8167    0.7158   -1.1079 C   0  0  0  0  0  0  0  0  0  0  0  0
    3.6678    1.8145   -2.1966 Cl  0  0  0  0  0  0  0  0  0  0  0  0
    3.5312   -0.2689   -0.4037 C   0  0  0  0  0  0  0  0  0  0  0  0
    5.2794   -0.4062   -0.6084 Cl  0  0  0  0  0  0  0  0  0  0  0  0
    2.8547   -1.1444    0.4634 C   0  0  0  0  0  0  0  0  0  0  0  0
    3.7534   -2.3807    1.3470 Cl  0  0  0  0  0  0  0  0  0  0  0  0
  1  2  1  0
  2  3  2  0
  2 20  1  0
  3  4  1  0
  3 14  1  0
  4  5  2  0
  4 12  1  0
  5  6  1  0
  6  8  2  0
  6  7  1  0
  8 10  1  0
  8  9  1  0
 10 11  1  0
 10 12  2  0
 12 13  1  0
 14 16  2  0
 14 15  1  0
 16 18  1  0
 16 17  1  0
 18 19  1  0
 18 20  2  0
 20 21  1  0
M  END
$$$$
