Clc1ccc(Cl)c(c2cccc(Cl)c2Cl)c1
     RDKit          3D

 16 17  0  0  0  0  0  0  0  0999 V2000
    3.4772    3.0050   -0.2804 Cl  0  0  0  0  0  0  0  0  0  0  0  0
    2.7322    1.4195   -0.1927 C   0  0  0  0  0  0  0  0  0  0  0  0
    3.5301    0.2719   -0.1799 C   0  0  0  0  0  0  0  0  0  0  0  0
    2.9381   -0.9920   -0.1147 C   0  0  0  0  0  0  0  0  0  0  0  0
    1.5451   -1.1178   -0.0570 C   0  0  0  0  0  0  0  0  0  0  0  0
    0.8425   -2.7315   -0.0126 Cl  0  0  0  0  0  0  0  0  0  0  0  0
    0.7368    0.0377   -0.0589 C   0  0  0  0  0  0  0  0  0  0  0  0
   -0.7356   -0.0565    0.0027 C   0  0  0  0  0  0  0  0  0  0  0  0
   -1.4825    0.2010   -1.1566 C   0  0  0  0  0  0  0  0  0  0  0  0
   -2.8752    0.1155   -1.1312 C   0  0  0  0  0  0  0  0  0  0  0  0
   -3.5345   -0.2219    0.0516 C   0  0  0  0  0  0  0  0  0  0  0  0
   -2.8054   -0.4707    1.2195 C   0  0  0  0  0  0  0  0  0  0  0  0
   -3.6800   -0.8811    2.6895 Cl  0  0  0  0  0  0  0  0  0  0  0  0
   -1.4004   -0.3860    1.2036 C   0  0  0  0  0  0  0  0  0  0  0  0
   -0.4838   -0.6615    2.6874 Cl  0  0  0  0  0  0  0  0  0  0  0  0
    1.3396    1.3031   -0.1355 C   0  0  0  0  0  0  0  0  0  0  0  0
  1  2  1  0
  2  3  2  0
  2 16  1  0
  3  4  1  0
  4  5  2  0
  5  7  1  0
  5  6  1  0
  7  8  1  0
  7 16  2  0
  8  9  2  0
  8 14  1  0
  9 10  1  0
 10 11  2  0
 11 12  1  0
 12 13  1  0
 12 14  2  0
 14 15  1  0
M  END
$$$$
