CC=CC=O
     RDKit          3D

  5  4  0  0  0  0  0  0  0  0999 V2000
   -1.2969   -0.0389    0.6480 C   0  0  0  0  0  0  0  0  0  0  0  0
   -0.4213    0.8265   -0.2064 C   0  0  0  0  0  0  0  0  0  0  0  0
    0.7999    0.4671   -0.6198 C   0  0  0  0  0  0  0  0  0  0  0  0
    1.4288   -0.8202   -0.2851 C   0  0  0  0  0  0  0  0  0  0  0  0
    2.5826   -1.0816   -0.7145 O   0  0  0  0  0  0  0  0  0  0  0  0
  1  2  1  0
  2  3  2  0
  3  4  1  0
  4  5  2  0
M  END
$$$$
