Cc1cccc3c1n2cnnc2S3
     RDKit          3D

 13 15  0  0  0  0  0  0  0  0999 V2000
   -0.5903    2.0693    0.5273 C   0  0  0  0  0  0  0  0  0  0  0  0
   -0.8451    0.6647    0.0641 C   0  0  0  0  0  0  0  0  0  0  0  0
   -2.1537    0.2525   -0.2699 C   0  0  0  0  0  0  0  0  0  0  0  0
   -2.4102   -1.0620   -0.7063 C   0  0  0  0  0  0  0  0  0  0  0  0
   -1.3686   -1.9937   -0.8191 C   0  0  0  0  0  0  0  0  0  0  0  0
   -0.0801   -1.5868   -0.4899 C   0  0  0  0  0  0  0  0  0  0  0  0
    0.1882   -0.2830   -0.0548 C   0  0  0  0  0  0  0  0  0  0  0  0
    1.5058   -0.1133    0.2077 N   0  0  0  0  0  0  0  0  0  0  0  0
    2.3852    0.8082    0.6259 C   0  0  0  0  0  0  0  0  0  0  0  0
    3.6285    0.2618    0.6612 N   0  0  0  0  0  0  0  0  0  0  0  0
    3.5375   -1.0093    0.2645 N   0  0  0  0  0  0  0  0  0  0  0  0
    2.2352   -1.1913    0.0007 C   0  0  0  0  0  0  0  0  0  0  0  0
    1.3543   -2.5219   -0.5407 S   0  0  0  0  0  0  0  0  0  0  0  0
  1  2  1  0
  2  3  2  0
  2  7  1  0
  3  4  1  0
  4  5  2  0
  5  6  1  0
  6  7  2  0
  6 13  1  0
  7  8  1  0
  8  9  1  0
  8 12  1  0
  9 10  2  0
 10 11  1  0
 11 12  2  0
 12 13  1  0
M  END
$$$$
