CCCCCCCI
     RDKit          3D

  8  7  0  0  0  0  0  0  0  0999 V2000
    3.4776    0.5074    0.6968 C   0  0  0  0  0  0  0  0  0  0  0  0
    2.4328    0.1145   -0.3438 C   0  0  0  0  0  0  0  0  0  0  0  0
    1.0115    0.3042    0.1987 C   0  0  0  0  0  0  0  0  0  0  0  0
   -0.0350   -0.1028   -0.8494 C   0  0  0  0  0  0  0  0  0  0  0  0
   -1.4729    0.1953   -0.3960 C   0  0  0  0  0  0  0  0  0  0  0  0
   -1.9449   -0.7434    0.7269 C   0  0  0  0  0  0  0  0  0  0  0  0
   -3.4254   -0.5416    1.0570 C   0  0  0  0  0  0  0  0  0  0  0  0
   -3.7734    1.3178    2.0628 I   0  0  0  0  0  0  0  0  0  0  0  0
  1  2  1  0
  2  3  1  0
  3  4  1  0
  4  5  1  0
  5  6  1  0
  6  7  1  0
  7  8  1  0
M  END
$$$$
