O=C1CCC2(C)C(CCC3C2CCC4(C)C3CCC4(C#C)O)=C1
     RDKit          3D

 23 26  0  0  1  0  0  0  0  0999 V2000
   -5.9146    0.5270   -1.2633 O   0  0  0  0  0  0  0  0  0  0  0  0
   -4.7871    0.2726   -0.7631 C   0  0  0  0  0  0  0  0  0  0  0  0
   -4.3903   -1.1548   -0.5267 C   0  0  0  0  0  0  0  0  0  0  0  0
   -2.8691   -1.2974   -0.3688 C   0  0  0  0  0  0  0  0  0  0  0  0
   -2.2635   -0.2463    0.6112 C   0  0  2  0  0  0  0  0  0  0  0  0
   -2.7785   -0.5143    2.0470 C   0  0  0  0  0  0  0  0  0  0  0  0
   -2.7088    1.1669    0.2006 C   0  0  0  0  0  0  0  0  0  0  0  0
   -1.7426    2.3223    0.4036 C   0  0  0  0  0  0  0  0  0  0  0  0
   -0.3813    2.0719   -0.2955 C   0  0  0  0  0  0  0  0  0  0  0  0
   -0.1298    0.5707   -0.5725 C   0  0  2  0  0  0  0  0  0  0  0  0
   -0.6892   -0.2906    0.6019 C   0  0  2  0  0  0  0  0  0  0  0  0
   -0.0403   -1.6975    0.6281 C   0  0  0  0  0  0  0  0  0  0  0  0
    1.4999   -1.6302    0.8477 C   0  0  0  0  0  0  0  0  0  0  0  0
    2.1900   -0.3710    0.2054 C   0  0  2  0  0  0  0  0  0  0  0  0
    2.4323    0.7135    1.3102 C   0  0  0  0  0  0  0  0  0  0  0  0
    1.3210    0.1613   -0.9471 C   0  0  2  0  0  0  0  0  0  0  0  0
    2.2076    1.1228   -1.7304 C   0  0  0  0  0  0  0  0  0  0  0  0
    3.6309    0.5642   -1.5458 C   0  0  0  0  0  0  0  0  0  0  0  0
    3.5275   -0.6381   -0.5693 C   0  0  1  0  0  0  0  0  0  0  0  0
    4.7307   -0.7000    0.3013 C   0  0  0  0  0  0  0  0  0  0  0  0
    5.7078   -0.7521    1.0059 C   0  0  0  0  0  0  0  0  0  0  0  0
    3.4372   -1.8122   -1.3532 O   0  0  0  0  0  0  0  0  0  0  0  0
   -3.8920    1.3821   -0.3980 C   0  0  0  0  0  0  0  0  0  0  0  0
  1  2  2  0
  2  3  1  0
  2 23  1  0
  3  4  1  0
  4  5  1  0
  5  6  1  1
  5 11  1  0
  5  7  1  0
  7  8  1  0
  7 23  2  0
  8  9  1  0
 10  9  1  1
 10 11  1  0
 10 16  1  0
 11 12  1  6
 12 13  1  0
 13 14  1  0
 14 15  1  1
 14 16  1  0
 14 19  1  0
 16 17  1  1
 17 18  1  0
 18 19  1  0
 19 20  1  1
 19 22  1  0
 20 21  3  0
M  END
$$$$
