Oc1cc(CC=C3C2CCC4(C)C3CCC4=O)c2cc1
     RDKit          3D

 20 23  0  0  1  0  0  0  0  0999 V2000
    6.0737    0.4034   -0.4266 O   0  0  0  0  0  0  0  0  0  0  0  0
    4.6866    0.4988   -0.3388 C   0  0  0  0  0  0  0  0  0  0  0  0
    3.9933   -0.1240    0.7051 C   0  0  0  0  0  0  0  0  0  0  0  0
    2.5957   -0.0319    0.7809 C   0  0  0  0  0  0  0  0  0  0  0  0
    1.8566   -0.6684    1.9325 C   0  0  0  0  0  0  0  0  0  0  0  0
    0.5016   -1.1479    1.4884 C   0  0  0  0  0  0  0  0  0  0  0  0
   -0.2098   -0.4442    0.5863 C   0  0  0  0  0  0  0  0  0  0  0  0
    0.3632    0.8412   -0.0247 C   0  0  2  0  0  0  0  0  0  0  0  0
   -0.3869    1.2365   -1.3421 C   0  0  0  0  0  0  0  0  0  0  0  0
   -1.9463    1.1373   -1.3021 C   0  0  0  0  0  0  0  0  0  0  0  0
   -2.4815    0.2109   -0.1798 C   0  0  2  0  0  0  0  0  0  0  0  0
   -2.7561    1.0222    1.1161 C   0  0  0  0  0  0  0  0  0  0  0  0
   -1.5027   -0.9522    0.0061 C   0  0  2  0  0  0  0  0  0  0  0  0
   -2.3065   -2.0629    0.6888 C   0  0  0  0  0  0  0  0  0  0  0  0
   -3.6938   -1.9505    0.0367 C   0  0  0  0  0  0  0  0  0  0  0  0
   -3.7282   -0.5505   -0.4940 C   0  0  0  0  0  0  0  0  0  0  0  0
   -4.6939   -0.0721   -1.0689 O   0  0  0  0  0  0  0  0  0  0  0  0
    1.8773    0.7039   -0.1918 C   0  0  0  0  0  0  0  0  0  0  0  0
    2.5939    1.3428   -1.2249 C   0  0  0  0  0  0  0  0  0  0  0  0
    3.9844    1.2288   -1.2996 C   0  0  0  0  0  0  0  0  0  0  0  0
  1  2  1  0
  2 20  2  0
  2  3  1  0
  3  4  2  0
  4  5  1  0
  4 18  1  0
  5  6  1  0
  6  7  2  0
  7  8  1  0
 13  7  1  1
  8  9  1  6
  8 18  1  0
  9 10  1  0
 10 11  1  0
 11 12  1  1
 11 13  1  0
 11 16  1  0
 13 14  1  0
 14 15  1  0
 15 16  1  0
 16 17  2  0
 18 19  2  0
 19 20  1  0
M  END
$$$$
