OC(C1)(COc3c2ccc(O)c3O)C2=C(C=C4O)C1=CC4=O
     RDKit          3D

 22 25  0  0  1  0  0  0  0  0999 V2000
    0.0409   -2.1160    1.9275 O   0  0  0  0  0  0  0  0  0  0  0  0
   -0.2575   -1.7997    0.5901 C   0  0  2  0  0  0  0  0  0  0  0  0
   -1.7087   -2.2203    0.2281 C   0  0  0  0  0  0  0  0  0  0  0  0
    0.8126   -2.3800   -0.3611 C   0  0  0  0  0  0  0  0  0  0  0  0
    2.0788   -1.7356   -0.1587 O   0  0  0  0  0  0  0  0  0  0  0  0
    2.2086   -0.3722    0.1685 C   0  0  0  0  0  0  0  0  0  0  0  0
    1.0648    0.3937    0.4695 C   0  0  0  0  0  0  0  0  0  0  0  0
    1.2069    1.7208    0.8999 C   0  0  0  0  0  0  0  0  0  0  0  0
    2.4741    2.3056    0.9522 C   0  0  0  0  0  0  0  0  0  0  0  0
    3.6114    1.5625    0.6074 C   0  0  0  0  0  0  0  0  0  0  0  0
    4.8755    2.1476    0.6554 O   0  0  0  0  0  0  0  0  0  0  0  0
    3.4822    0.2201    0.2251 C   0  0  0  0  0  0  0  0  0  0  0  0
    4.6270   -0.5127   -0.0891 O   0  0  0  0  0  0  0  0  0  0  0  0
   -0.2328   -0.3059    0.4212 C   0  0  0  0  0  0  0  0  0  0  0  0
   -1.4005    0.1631   -0.0082 C   0  0  0  0  0  0  0  0  0  0  0  0
   -1.7589    1.5148   -0.4895 C   0  0  0  0  0  0  0  0  0  0  0  0
   -3.0077    1.7409   -0.9291 C   0  0  0  0  0  0  0  0  0  0  0  0
   -3.3533    3.0170   -1.3706 O   0  0  0  0  0  0  0  0  0  0  0  0
   -2.3456   -0.9246   -0.1240 C   0  0  0  0  0  0  0  0  0  0  0  0
   -3.5923   -0.7339   -0.5598 C   0  0  0  0  0  0  0  0  0  0  0  0
   -4.0033    0.6311   -0.9555 C   0  0  0  0  0  0  0  0  0  0  0  0
   -5.1864    0.8428   -1.3314 O   0  0  0  0  0  0  0  0  0  0  0  0
  2  1  1  1
  2  3  1  0
  2 14  1  0
  2  4  1  0
  3 19  1  0
  4  5  1  0
  5  6  1  0
  6  7  2  0
  6 12  1  0
  7  8  1  0
  7 14  1  0
  8  9  2  0
  9 10  1  0
 10 12  2  0
 10 11  1  0
 12 13  1  0
 14 15  2  0
 15 16  1  0
 15 19  1  0
 16 17  2  0
 17 21  1  0
 17 18  1  0
 19 20  2  0
 20 21  1  0
 21 22  2  0
M  END
$$$$
