
     RDKit          3D

 33 36  0  0  1  0  0  0  0  0999 V2000
   -7.2872    2.6020   -0.6514 O   0  0  0  0  0  0  0  0  0  0  0  0
   -5.9256    2.3052   -0.4843 C   0  0  2  0  0  0  0  0  0  0  0  0
   -5.3539    1.7919   -1.8260 C   0  0  0  0  0  0  0  0  0  0  0  0
   -3.9327    1.1847   -1.7121 C   0  0  0  0  0  0  0  0  0  0  0  0
   -3.8184    0.1258   -0.5770 C   0  0  1  0  0  0  0  0  0  0  0  0
   -4.7364   -1.0890   -0.9328 C   0  0  0  0  0  0  0  0  0  0  0  0
   -2.3471   -0.4460   -0.3711 C   0  0  1  0  0  0  0  0  0  0  0  0
   -1.4872   -0.5695   -1.6586 C   0  0  0  0  0  0  0  0  0  0  0  0
   -0.0425   -1.1711   -1.4830 C   0  0  1  0  0  0  0  0  0  0  0  0
    0.8309   -0.3332   -2.1800 O   0  0  0  0  0  0  0  0  0  0  0  0
    0.4081   -1.3360    0.0181 C   0  0  1  0  0  0  0  0  0  0  0  0
   -0.2423   -2.6554    0.5752 C   0  0  0  0  0  0  0  0  0  0  0  0
    1.9529   -1.4042    0.4297 C   0  0  1  0  0  0  0  0  0  0  0  0
    3.1488   -1.2100   -0.5697 C   0  0  1  0  0  0  0  0  0  0  0  0
    3.2051   -2.3129   -1.6414 C   0  0  0  0  0  0  0  0  0  0  0  0
    3.3498    0.2142   -1.1760 C   0  0  0  0  0  0  0  0  0  0  0  0
    4.8043    0.7119   -1.0792 C   0  0  0  0  0  0  0  0  0  0  0  0
    5.1670    1.1331    0.3203 C   0  0  0  0  0  0  0  0  0  0  0  0
    6.1790    0.4573    1.0803 N   0  0  0  0  0  0  0  0  0  0  0  0
    7.4831    0.0839    0.5343 C   0  0  0  0  0  0  0  0  0  0  0  0
    8.5005    1.1220    0.8947 C   0  0  0  0  0  0  0  0  0  0  0  0
    8.4014    2.4148    0.3883 O   0  0  0  0  0  0  0  0  0  0  0  0
    9.4561    0.8284    1.6604 O   0  0  0  0  0  0  0  0  0  0  0  0
    4.5438    2.0919    0.8499 O   0  0  0  0  0  0  0  0  0  0  0  0
    2.1054   -0.5200    1.6946 C   0  0  0  0  0  0  0  0  0  0  0  0
    0.7153   -0.0319    2.0743 C   0  0  0  0  0  0  0  0  0  0  0  0
   -0.0516   -0.0623    0.7633 C   0  0  2  0  0  0  0  0  0  0  0  0
   -1.5834    0.2500    0.7862 C   0  0  2  0  0  0  0  0  0  0  0  0
   -2.3243   -0.0169    2.1373 C   0  0  1  0  0  0  0  0  0  0  0  0
   -1.8966    0.9259    3.0872 O   0  0  0  0  0  0  0  0  0  0  0  0
   -3.8790    0.0639    1.9966 C   0  0  0  0  0  0  0  0  0  0  0  0
   -4.2798    0.8512    0.7347 C   0  0  2  0  0  0  0  0  0  0  0  0
   -5.7483    1.2945    0.6732 C   0  0  0  0  0  0  0  0  0  0  0  0
  2  1  1  6
  2  3  1  0
  2 33  1  0
  3  4  1  0
  4  5  1  0
  5  6  1  6
  5 32  1  0
  5  7  1  0
  7  8  1  6
  7 28  1  0
  8  9  1  0
  9 11  1  0
  9 10  1  6
 11 12  1  1
 11 13  1  0
 11 27  1  0
 13 25  1  1
 13 14  1  0
 14 15  1  6
 14 16  1  0
 16 17  1  0
 17 18  1  0
 18 19  1  0
 18 24  2  0
 19 20  1  0
 20 21  1  0
 21 22  1  0
 21 23  2  0
 25 26  1  0
 27 26  1  1
 27 28  1  0
 28 29  1  1
 29 31  1  0
 29 30  1  1
 32 31  1  1
 32 33  1  0
M  END
$$$$
