
     RDKit          3D

 22 24  0  0  0  0  0  0  0  0999 V2000
    2.3760   -2.1325    0.9070 O   0  0  0  0  0  0  0  0  0  0  0  0
    2.8067   -0.9659    0.2718 C   0  0  0  0  0  0  0  0  0  0  0  0
    4.1841   -0.7349    0.1718 C   0  0  0  0  0  0  0  0  0  0  0  0
    4.6684    0.4448   -0.4006 C   0  0  0  0  0  0  0  0  0  0  0  0
    6.0430    0.6547   -0.4844 O   0  0  0  0  0  0  0  0  0  0  0  0
    3.7695    1.4053   -0.8782 C   0  0  0  0  0  0  0  0  0  0  0  0
    2.3934    1.1805   -0.7957 C   0  0  0  0  0  0  0  0  0  0  0  0
    1.8983   -0.0110   -0.2430 C   0  0  0  0  0  0  0  0  0  0  0  0
    0.4373   -0.2165   -0.2078 C   0  0  0  0  0  0  0  0  0  0  0  0
   -0.1628   -1.3047   -0.8631 C   0  0  0  0  0  0  0  0  0  0  0  0
    0.6253   -2.2126   -1.5751 O   0  0  0  0  0  0  0  0  0  0  0  0
   -1.5568   -1.4491   -0.7991 C   0  0  0  0  0  0  0  0  0  0  0  0
   -2.3232   -0.4960   -0.0960 C   0  0  0  0  0  0  0  0  0  0  0  0
   -3.7328   -0.5662    0.0154 C   0  0  0  0  0  0  0  0  0  0  0  0
   -4.4486   -1.6096   -0.5730 O   0  0  0  0  0  0  0  0  0  0  0  0
   -4.4245    0.4255    0.7267 C   0  0  0  0  0  0  0  0  0  0  0  0
   -3.7373    1.4832    1.3264 C   0  0  0  0  0  0  0  0  0  0  0  0
   -4.4487    2.4552    2.0262 O   0  0  0  0  0  0  0  0  0  0  0  0
   -2.3446    1.5581    1.2203 C   0  0  0  0  0  0  0  0  0  0  0  0
   -1.6363    0.5793    0.5173 C   0  0  0  0  0  0  0  0  0  0  0  0
   -0.3136    0.6720    0.4344 O   0  0  0  0  0  0  0  0  0  0  0  0
   -2.1065   -2.4270   -1.3753 O   0  0  0  0  0  0  0  0  0  0  0  0
  1  2  1  0
  2  3  2  0
  2  8  1  0
  3  4  1  0
  4  6  2  0
  4  5  1  0
  6  7  1  0
  7  8  2  0
  8  9  1  0
  9 10  2  0
  9 21  1  0
 10 12  1  0
 10 11  1  0
 12 13  1  0
 12 22  2  0
 13 14  2  0
 13 20  1  0
 14 16  1  0
 14 15  1  0
 16 17  2  0
 17 19  1  0
 17 18  1  0
 19 20  2  0
 20 21  1  0
M  END
$$$$
