O=C2Oc1c(C=C2)ccc(OC)c1CC=C(C)C
     RDKit          3D

 18 19  0  0  0  0  0  0  0  0999 V2000
   -1.6600   -4.2465   -0.4993 O   0  0  0  0  0  0  0  0  0  0  0  0
   -2.0005   -3.0423   -0.6354 C   0  0  0  0  0  0  0  0  0  0  0  0
   -1.2360   -2.0806   -0.1258 O   0  0  0  0  0  0  0  0  0  0  0  0
   -1.5351   -0.7857   -0.2321 C   0  0  0  0  0  0  0  0  0  0  0  0
   -2.7072   -0.3922   -0.9147 C   0  0  0  0  0  0  0  0  0  0  0  0
   -3.5316   -1.3825   -1.4587 C   0  0  0  0  0  0  0  0  0  0  0  0
   -3.1767   -2.7226   -1.3188 C   0  0  0  0  0  0  0  0  0  0  0  0
   -3.0213    0.9638   -1.0427 C   0  0  0  0  0  0  0  0  0  0  0  0
   -2.1719    1.9319   -0.5067 C   0  0  0  0  0  0  0  0  0  0  0  0
   -0.9962    1.5596    0.1744 C   0  0  0  0  0  0  0  0  0  0  0  0
   -0.1162    2.5202    0.7014 O   0  0  0  0  0  0  0  0  0  0  0  0
   -0.3029    3.9286    0.6066 C   0  0  0  0  0  0  0  0  0  0  0  0
   -0.6863    0.1901    0.3311 C   0  0  0  0  0  0  0  0  0  0  0  0
    0.5854   -0.2257    1.0364 C   0  0  0  0  0  0  0  0  0  0  0  0
    1.7351   -0.3011    0.0619 C   0  0  0  0  0  0  0  0  0  0  0  0
    2.9880   -0.6479    0.4247 C   0  0  0  0  0  0  0  0  0  0  0  0
    3.3304   -0.9898    1.8554 C   0  0  0  0  0  0  0  0  0  0  0  0
    4.0615   -0.6913   -0.6316 C   0  0  0  0  0  0  0  0  0  0  0  0
  1  2  2  0
  2  7  1  0
  2  3  1  0
  3  4  1  0
  4  5  2  0
  4 13  1  0
  5  8  1  0
  5  6  1  0
  6  7  2  0
  8  9  2  0
  9 10  1  0
 10 13  2  0
 10 11  1  0
 11 12  1  0
 13 14  1  0
 14 15  1  0
 15 16  2  0
 16 17  1  0
 16 18  1  0
M  END
$$$$
