OC(C(CC3CC4)N4CC3CC)c1ccnc2c1cccc2
     RDKit          3D

 22 25  0  0  1  0  0  0  0  0999 V2000
   -0.8114    0.8259   -1.0249 O   0  0  0  0  0  0  0  0  0  0  0  0
   -0.9896   -0.4540   -0.4728 C   0  0  1  0  0  0  0  0  0  0  0  0
    0.3546   -1.0056    0.0999 C   0  0  1  0  0  0  0  0  0  0  0  0
    1.4245   -1.2773   -1.0011 C   0  0  0  0  0  0  0  0  0  0  0  0
    2.7842   -0.7263   -0.5305 C   0  0  2  0  0  0  0  0  0  0  0  0
    3.1065   -1.3703    0.8384 C   0  0  0  0  0  0  0  0  0  0  0  0
    2.0035   -0.9882    1.8614 C   0  0  0  0  0  0  0  0  0  0  0  0
    0.9351   -0.1863    1.2112 N   0  0  0  0  0  0  0  0  0  0  0  0
    1.5561    1.0777    0.7339 C   0  0  0  0  0  0  0  0  0  0  0  0
    2.6218    0.8104   -0.3699 C   0  0  1  0  0  0  0  0  0  0  0  0
    3.9421    1.5584   -0.0659 C   0  0  0  0  0  0  0  0  0  0  0  0
    4.9749    1.4314   -1.1857 C   0  0  0  0  0  0  0  0  0  0  0  0
   -2.1783   -0.4137    0.4966 C   0  0  0  0  0  0  0  0  0  0  0  0
   -2.0333   -0.7362    1.8647 C   0  0  0  0  0  0  0  0  0  0  0  0
   -3.1211   -0.6600    2.7312 C   0  0  0  0  0  0  0  0  0  0  0  0
   -4.3388   -0.2889    2.2712 N   0  0  0  0  0  0  0  0  0  0  0  0
   -4.5494    0.0096    0.9650 C   0  0  0  0  0  0  0  0  0  0  0  0
   -3.4794   -0.0548    0.0331 C   0  0  0  0  0  0  0  0  0  0  0  0
   -3.7585    0.2314   -1.3236 C   0  0  0  0  0  0  0  0  0  0  0  0
   -5.0482    0.5894   -1.7262 C   0  0  0  0  0  0  0  0  0  0  0  0
   -6.0822    0.6635   -0.7940 C   0  0  0  0  0  0  0  0  0  0  0  0
   -5.8351    0.3720    0.5470 C   0  0  0  0  0  0  0  0  0  0  0  0
  2  1  1  1
  2 13  1  0
  2  3  1  0
  3  4  1  6
  3  8  1  0
  5  4  1  1
  5  6  1  0
  5 10  1  0
  6  7  1  0
  7  8  1  0
  8  9  1  0
  9 10  1  0
 10 11  1  1
 11 12  1  0
 13 14  2  0
 13 18  1  0
 14 15  1  0
 15 16  2  0
 16 17  1  0
 17 22  1  0
 17 18  2  0
 18 19  1  0
 19 20  2  0
 20 21  1  0
 21 22  2  0
M  END
$$$$
