
     RDKit          3D

 22 25  0  0  1  0  0  0  0  0999 V2000
   -1.4440   -1.4097   -2.8451 O   0  0  0  0  0  0  0  0  0  0  0  0
   -1.1511   -0.4365   -1.8672 C   0  0  1  0  0  0  0  0  0  0  0  0
   -1.8938   -0.7589   -0.5700 C   0  0  0  0  0  0  0  0  0  0  0  0
   -2.5579    0.2222    0.2289 C   0  0  0  0  0  0  0  0  0  0  0  0
   -2.5945    1.6008   -0.0911 C   0  0  0  0  0  0  0  0  0  0  0  0
   -3.2486    2.5111    0.7438 C   0  0  0  0  0  0  0  0  0  0  0  0
   -3.8832    2.0743    1.9045 C   0  0  0  0  0  0  0  0  0  0  0  0
   -3.8723    0.7214    2.2373 C   0  0  0  0  0  0  0  0  0  0  0  0
   -3.2218   -0.2036    1.4129 C   0  0  0  0  0  0  0  0  0  0  0  0
   -3.2381   -1.5158    1.7588 N   0  0  0  0  0  0  0  0  0  0  0  0
   -2.6359   -2.4634    1.0033 C   0  0  0  0  0  0  0  0  0  0  0  0
   -1.9677   -2.1087   -0.1643 C   0  0  0  0  0  0  0  0  0  0  0  0
    0.3937   -0.2155   -1.7415 C   0  0  2  0  0  0  0  0  0  0  0  0
    1.1431   -1.3231   -1.0677 N   0  0  0  0  0  0  0  0  0  0  0  0
    2.5468   -1.2693   -1.5561 C   0  0  0  0  0  0  0  0  0  0  0  0
    3.1447    0.1516   -1.3458 C   0  0  0  0  0  0  0  0  0  0  0  0
    1.1928   -1.1568    0.4160 C   0  0  0  0  0  0  0  0  0  0  0  0
    1.8835    0.1772    0.8338 C   0  0  1  0  0  0  0  0  0  0  0  0
    3.1283   -0.0522    1.6674 C   0  0  0  0  0  0  0  0  0  0  0  0
    3.7444    0.9565    2.2910 C   0  0  0  0  0  0  0  0  0  0  0  0
    2.1874    0.9813   -0.4507 C   0  0  2  0  0  0  0  0  0  0  0  0
    0.8426    1.1654   -1.1904 C   0  0  0  0  0  0  0  0  0  0  0  0
  2  1  1  6
  2  3  1  0
  2 13  1  0
  3 12  2  0
  3  4  1  0
  4  5  2  0
  4  9  1  0
  5  6  1  0
  6  7  2  0
  7  8  1  0
  8  9  2  0
  9 10  1  0
 10 11  2  0
 11 12  1  0
 13 22  1  1
 13 14  1  0
 14 15  1  0
 14 17  1  0
 15 16  1  0
 21 16  1  6
 17 18  1  0
 18 19  1  6
 18 21  1  0
 19 20  2  0
 21 22  1  0
M  END
$$$$
