
     RDKit          3D

 29 32  0  0  1  0  0  0  0  0999 V2000
   -6.5513    1.6313    0.9715 O   0  0  0  0  0  0  0  0  0  0  0  0
   -5.3776    1.4356    0.5592 C   0  0  0  0  0  0  0  0  0  0  0  0
   -4.3811    2.5553    0.6124 C   0  0  0  0  0  0  0  0  0  0  0  0
   -2.9391    2.0345    0.5133 C   0  0  0  0  0  0  0  0  0  0  0  0
   -2.7503    1.0017   -0.6427 C   0  0  2  0  0  0  0  0  0  0  0  0
   -2.9718    1.6936   -2.0118 C   0  0  0  0  0  0  0  0  0  0  0  0
   -3.7996   -0.1186   -0.5091 C   0  0  0  0  0  0  0  0  0  0  0  0
   -3.4096   -1.5388   -0.8931 C   0  0  0  0  0  0  0  0  0  0  0  0
   -2.1339   -2.0193   -0.1490 C   0  0  0  0  0  0  0  0  0  0  0  0
   -1.3173   -0.8404    0.4300 C   0  0  1  0  0  0  0  0  0  0  0  0
    0.0863   -1.1804    1.0115 C   0  0  1  0  0  0  0  0  0  0  0  0
    0.3545   -2.5836    1.5460 C   0  0  0  0  0  0  0  0  0  0  0  0
    1.8863   -2.6848    1.6335 C   0  0  0  0  0  0  0  0  0  0  0  0
    2.4743   -1.3701    1.0385 C   0  0  1  0  0  0  0  0  0  0  0  0
    2.7079   -0.5205    2.1458 O   0  0  0  0  0  0  0  0  0  0  0  0
    3.7908   -1.6431    0.2804 C   0  0  0  0  0  0  0  0  0  0  0  0
    4.9416   -0.6725    0.2823 C   0  0  0  0  0  0  0  0  0  0  0  0
    4.5343    0.5471   -0.3266 O   0  0  0  0  0  0  0  0  0  0  0  0
    5.3744    1.6569   -0.4380 C   0  0  0  0  0  0  0  0  0  0  0  0
    4.8501    2.9112   -1.0491 C   0  0  0  0  0  0  0  0  0  0  0  0
    6.5506    1.6239    0.0158 O   0  0  0  0  0  0  0  0  0  0  0  0
    3.9173   -2.6710   -0.3704 O   0  0  0  0  0  0  0  0  0  0  0  0
    1.2962   -0.8274    0.1381 C   0  0  1  0  0  0  0  0  0  0  0  0
    1.2915   -1.5856   -1.2288 C   0  0  0  0  0  0  0  0  0  0  0  0
    1.2726    0.7135   -0.1077 C   0  0  0  0  0  0  0  0  0  0  0  0
   -0.1008    1.2505   -0.4792 C   0  0  0  0  0  0  0  0  0  0  0  0
   -1.3185    0.3352   -0.6007 C   0  0  2  0  0  0  0  0  0  0  0  0
   -0.1861    2.4297   -0.7838 O   0  0  0  0  0  0  0  0  0  0  0  0
   -5.0148    0.1191    0.0120 C   0  0  0  0  0  0  0  0  0  0  0  0
  1  2  2  0
  2  3  1  0
  2 29  1  0
  3  4  1  0
  4  5  1  0
  5  6  1  6
  5 27  1  0
  5  7  1  0
  7  8  1  0
  7 29  2  0
  8  9  1  0
 10  9  1  6
 10 11  1  0
 10 27  1  0
 11 12  1  6
 11 23  1  0
 12 13  1  0
 13 14  1  0
 14 23  1  0
 14 16  1  6
 14 15  1  0
 16 17  1  0
 16 22  2  0
 17 18  1  0
 18 19  1  0
 19 20  1  0
 19 21  2  0
 23 24  1  6
 23 25  1  0
 25 26  1  0
 27 26  1  1
 26 28  2  0
M  END
$$$$
