O=C(N1C)NC(C(CC)(CC)C1=O)=O
     RDKit          3D

 14 14  0  0  0  0  0  0  0  0999 V2000
    3.7086    0.4232   -0.9237 O   0  0  0  0  0  0  0  0  0  0  0  0
    2.5670    0.4599   -0.3899 C   0  0  0  0  0  0  0  0  0  0  0  0
    2.0193   -0.7018    0.2523 N   0  0  0  0  0  0  0  0  0  0  0  0
    2.7935   -1.9457    0.3194 C   0  0  0  0  0  0  0  0  0  0  0  0
    1.8249    1.6778   -0.3984 N   0  0  0  0  0  0  0  0  0  0  0  0
    0.4731    1.7077    0.0669 C   0  0  0  0  0  0  0  0  0  0  0  0
   -0.3110    0.4078    0.2256 C   0  0  0  0  0  0  0  0  0  0  0  0
   -1.4907    0.5880    1.2477 C   0  0  0  0  0  0  0  0  0  0  0  0
   -2.7029    1.3915    0.7493 C   0  0  0  0  0  0  0  0  0  0  0  0
   -0.8086   -0.0188   -1.1874 C   0  0  0  0  0  0  0  0  0  0  0  0
   -1.5461   -1.3631   -1.2240 C   0  0  0  0  0  0  0  0  0  0  0  0
    0.6625   -0.6562    0.7373 C   0  0  0  0  0  0  0  0  0  0  0  0
    0.2661   -1.5387    1.5488 O   0  0  0  0  0  0  0  0  0  0  0  0
   -0.0703    2.8263    0.2681 O   0  0  0  0  0  0  0  0  0  0  0  0
  1  2  2  0
  2  5  1  0
  2  3  1  0
  3  4  1  0
  3 12  1  0
  5  6  1  0
  6  7  1  0
  6 14  2  0
  7  8  1  0
  7 10  1  0
  7 12  1  0
  8  9  1  0
 10 11  1  0
 12 13  2  0
M  END
$$$$
