CN1C2CCC1C(C(OC)=O)C(OC(c3ccccc3)=O)C2
     RDKit          3D

 22 24  0  0  1  0  0  0  0  0999 V2000
   -3.9856   -2.5123    1.1287 C   0  0  0  0  0  0  0  0  0  0  0  0
   -2.6524   -1.9280    0.8953 N   0  0  0  0  0  0  0  0  0  0  0  0
   -2.1301   -1.2165    2.0710 C   0  0  2  0  0  0  0  0  0  0  0  0
   -2.8144    0.1607    2.0753 C   0  0  0  0  0  0  0  0  0  0  0  0
   -3.2051    0.3846    0.6237 C   0  0  0  0  0  0  0  0  0  0  0  0
   -2.6617   -0.8581   -0.1112 C   0  0  1  0  0  0  0  0  0  0  0  0
   -1.1855   -0.7061   -0.6235 C   0  0  1  0  0  0  0  0  0  0  0  0
   -0.8538    0.6752   -1.1380 C   0  0  0  0  0  0  0  0  0  0  0  0
   -0.3840    1.6549   -0.2558 O   0  0  0  0  0  0  0  0  0  0  0  0
    0.0193    2.9472   -0.6894 C   0  0  0  0  0  0  0  0  0  0  0  0
   -0.9817    0.9306   -2.3669 O   0  0  0  0  0  0  0  0  0  0  0  0
   -0.1367   -1.2367    0.4202 C   0  0  1  0  0  0  0  0  0  0  0  0
    1.1514   -0.6411    0.2455 O   0  0  0  0  0  0  0  0  0  0  0  0
    1.9647   -0.8629   -0.8728 C   0  0  0  0  0  0  0  0  0  0  0  0
    3.1738   -0.0362   -1.0733 C   0  0  0  0  0  0  0  0  0  0  0  0
    4.0457   -0.2852   -2.1498 C   0  0  0  0  0  0  0  0  0  0  0  0
    5.1807    0.5097   -2.3384 C   0  0  0  0  0  0  0  0  0  0  0  0
    5.4553    1.5597   -1.4592 C   0  0  0  0  0  0  0  0  0  0  0  0
    4.5954    1.8172   -0.3891 C   0  0  0  0  0  0  0  0  0  0  0  0
    3.4598    1.0249   -0.1948 C   0  0  0  0  0  0  0  0  0  0  0  0
    1.6616   -1.7582   -1.7090 O   0  0  0  0  0  0  0  0  0  0  0  0
   -0.5908   -1.0617    1.8941 C   0  0  0  0  0  0  0  0  0  0  0  0
  1  2  1  0
  2  3  1  0
  2  6  1  0
  3  4  1  6
  3 22  1  0
  4  5  1  0
  6  5  1  1
  6  7  1  0
  7 12  1  0
  7  8  1  1
  8 11  2  0
  8  9  1  0
  9 10  1  0
 12 22  1  0
 12 13  1  1
 13 14  1  0
 14 15  1  0
 14 21  2  0
 15 20  1  0
 15 16  2  0
 16 17  1  0
 17 18  2  0
 18 19  1  0
 19 20  2  0
M  END
$$$$
