
     RDKit          3D

 20 24  0  0  0  0  0  0  0  0999 V2000
    0.3652   -0.2114   -0.0385 C   0  0  0  0  0  0  0  0  0  0  0  0
    1.7310    0.1394    0.0943 C   0  0  0  0  0  0  0  0  0  0  0  0
    2.0928    1.4613    0.4274 C   0  0  0  0  0  0  0  0  0  0  0  0
    3.4478    1.8021    0.5574 C   0  0  0  0  0  0  0  0  0  0  0  0
    4.4381    0.8372    0.3581 C   0  0  0  0  0  0  0  0  0  0  0  0
    4.0888   -0.4745    0.0279 C   0  0  0  0  0  0  0  0  0  0  0  0
    2.7391   -0.8331   -0.1062 C   0  0  0  0  0  0  0  0  0  0  0  0
    2.3811   -2.1455   -0.4368 C   0  0  0  0  0  0  0  0  0  0  0  0
    1.0372   -2.4964   -0.5689 C   0  0  0  0  0  0  0  0  0  0  0  0
    0.0270   -1.5416   -0.3727 C   0  0  0  0  0  0  0  0  0  0  0  0
   -1.3129   -1.9062   -0.5080 C   0  0  0  0  0  0  0  0  0  0  0  0
   -2.3322   -0.9679   -0.3162 C   0  0  0  0  0  0  0  0  0  0  0  0
   -2.0207    0.3799    0.0214 C   0  0  0  0  0  0  0  0  0  0  0  0
   -3.0991    1.2824    0.2025 C   0  0  0  0  0  0  0  0  0  0  0  0
   -4.4221    0.8598    0.0538 C   0  0  0  0  0  0  0  0  0  0  0  0
   -4.7067   -0.4615   -0.2764 C   0  0  0  0  0  0  0  0  0  0  0  0
   -3.6698   -1.3723   -0.4610 C   0  0  0  0  0  0  0  0  0  0  0  0
   -0.6513    0.7638    0.1624 C   0  0  0  0  0  0  0  0  0  0  0  0
   -0.2519    2.0812    0.4957 C   0  0  0  0  0  0  0  0  0  0  0  0
    1.0963    2.4194    0.6248 C   0  0  0  0  0  0  0  0  0  0  0  0
  1  2  2  0
  1 18  1  0
  1 10  1  0
  2  7  1  0
  2  3  1  0
  3 20  1  0
  3  4  2  0
  4  5  1  0
  5  6  2  0
  6  7  1  0
  7  8  2  0
  8  9  1  0
  9 10  2  0
 10 11  1  0
 11 12  2  0
 12 13  1  0
 12 17  1  0
 13 18  2  0
 13 14  1  0
 14 15  2  0
 15 16  1  0
 16 17  2  0
 18 19  1  0
 19 20  2  0
M  END
$$$$
