CNCCCN1c3c(cccc3)CCc2c1cccc2
     RDKit          3D

 20 22  0  0  0  0  0  0  0  0999 V2000
    4.5371    1.2152    1.9211 C   0  0  0  0  0  0  0  0  0  0  0  0
    3.2474    1.7687    1.5006 N   0  0  0  0  0  0  0  0  0  0  0  0
    2.5182    0.8543    0.6064 C   0  0  0  0  0  0  0  0  0  0  0  0
    1.7114   -0.2033    1.3863 C   0  0  0  0  0  0  0  0  0  0  0  0
    1.0872   -1.2810    0.4823 C   0  0  0  0  0  0  0  0  0  0  0  0
   -0.1647   -0.8255   -0.1562 N   0  0  0  0  0  0  0  0  0  0  0  0
   -1.4215   -1.4798    0.1307 C   0  0  0  0  0  0  0  0  0  0  0  0
   -2.6377   -0.7604    0.3545 C   0  0  0  0  0  0  0  0  0  0  0  0
   -3.8117   -1.4891    0.6306 C   0  0  0  0  0  0  0  0  0  0  0  0
   -3.8045   -2.8814    0.6834 C   0  0  0  0  0  0  0  0  0  0  0  0
   -2.6285   -3.5805    0.4401 C   0  0  0  0  0  0  0  0  0  0  0  0
   -1.4523   -2.8895    0.1581 C   0  0  0  0  0  0  0  0  0  0  0  0
   -2.8205    0.7480    0.2465 C   0  0  0  0  0  0  0  0  0  0  0  0
   -1.5623    1.6147    0.2224 C   0  0  0  0  0  0  0  0  0  0  0  0
   -0.7803    1.3760   -1.0353 C   0  0  0  0  0  0  0  0  0  0  0  0
   -0.1141    0.1551   -1.2015 C   0  0  0  0  0  0  0  0  0  0  0  0
    0.6317   -0.0802   -2.3674 C   0  0  0  0  0  0  0  0  0  0  0  0
    0.7107    0.9000   -3.3599 C   0  0  0  0  0  0  0  0  0  0  0  0
    0.0500    2.1194   -3.1928 C   0  0  0  0  0  0  0  0  0  0  0  0
   -0.6935    2.3599   -2.0340 C   0  0  0  0  0  0  0  0  0  0  0  0
  1  2  1  0
  2  3  1  0
  3  4  1  0
  4  5  1  0
  5  6  1  0
  6 16  1  0
  6  7  1  0
  7 12  1  0
  7  8  2  0
  8 13  1  0
  8  9  1  0
  9 10  2  0
 10 11  1  0
 11 12  2  0
 13 14  1  0
 14 15  1  0
 15 20  1  0
 15 16  2  0
 16 17  1  0
 17 18  2  0
 18 19  1  0
 19 20  2  0
M  END
$$$$
