
     RDKit          3D

 21 23  0  0  0  0  0  0  0  0999 V2000
    4.8245   -0.8598   -0.5238 C   0  0  0  0  0  0  0  0  0  0  0  0
    4.0006   -0.9840    0.6921 N   0  0  0  0  0  0  0  0  0  0  0  0
    3.0017    0.1047    0.7727 C   0  0  0  0  0  0  0  0  0  0  0  0
    1.7592   -0.2370   -0.0603 C   0  0  0  0  0  0  0  0  0  0  0  0
    0.6776    0.7983    0.1223 C   0  0  0  0  0  0  0  0  0  0  0  0
   -0.5956    0.6297   -0.2854 C   0  0  0  0  0  0  0  0  0  0  0  0
   -1.6041    1.6187    0.1216 C   0  0  0  0  0  0  0  0  0  0  0  0
   -1.6009    2.9114   -0.4226 C   0  0  0  0  0  0  0  0  0  0  0  0
   -2.5828    3.8313   -0.0444 C   0  0  0  0  0  0  0  0  0  0  0  0
   -3.5675    3.4649    0.8773 C   0  0  0  0  0  0  0  0  0  0  0  0
   -3.5674    2.1808    1.4308 C   0  0  0  0  0  0  0  0  0  0  0  0
   -2.5774    1.2547    1.0633 C   0  0  0  0  0  0  0  0  0  0  0  0
   -2.5399   -0.1225    1.6683 C   0  0  0  0  0  0  0  0  0  0  0  0
   -2.9879   -1.1862    0.6621 C   0  0  0  0  0  0  0  0  0  0  0  0
   -2.1511   -1.3867   -0.5994 C   0  0  0  0  0  0  0  0  0  0  0  0
   -1.0580   -0.5704   -1.0294 C   0  0  0  0  0  0  0  0  0  0  0  0
   -0.4475   -0.8447   -2.2689 C   0  0  0  0  0  0  0  0  0  0  0  0
   -0.8479   -1.9318   -3.0427 C   0  0  0  0  0  0  0  0  0  0  0  0
   -1.8849   -2.7498   -2.6092 C   0  0  0  0  0  0  0  0  0  0  0  0
   -2.5359   -2.4742   -1.4079 C   0  0  0  0  0  0  0  0  0  0  0  0
    4.8748   -0.9609    1.8764 C   0  0  0  0  0  0  0  0  0  0  0  0
  1  2  1  0
  2 21  1  0
  2  3  1  0
  3  4  1  0
  4  5  1  0
  5  6  2  0
  6 16  1  0
  6  7  1  0
  7  8  1  0
  7 12  2  0
  8  9  2  0
  9 10  1  0
 10 11  2  0
 11 12  1  0
 12 13  1  0
 13 14  1  0
 14 15  1  0
 15 20  1  0
 15 16  2  0
 16 17  1  0
 17 18  2  0
 18 19  1  0
 19 20  2  0
M  END
$$$$
