CCCCC(CCCC)=O
     RDKit          3D

 10  9  0  0  0  0  0  0  0  0999 V2000
    2.8910    1.5767    0.7817 C   0  0  0  0  0  0  0  0  0  0  0  0
    2.4698    0.1824    0.3278 C   0  0  0  0  0  0  0  0  0  0  0  0
    1.8892    0.2153   -1.0933 C   0  0  0  0  0  0  0  0  0  0  0  0
    1.4646   -1.1791   -1.5760 C   0  0  0  0  0  0  0  0  0  0  0  0
    0.2847   -1.7142   -0.8053 C   0  0  0  0  0  0  0  0  0  0  0  0
   -1.0761   -1.0808   -0.9295 C   0  0  0  0  0  0  0  0  0  0  0  0
   -1.5015   -0.4346    0.3937 C   0  0  0  0  0  0  0  0  0  0  0  0
   -2.8845    0.2139    0.2687 C   0  0  0  0  0  0  0  0  0  0  0  0
   -3.3098    0.8619    1.5831 C   0  0  0  0  0  0  0  0  0  0  0  0
    0.4280   -2.6955   -0.0912 O   0  0  0  0  0  0  0  0  0  0  0  0
  1  2  1  0
  2  3  1  0
  3  4  1  0
  4  5  1  0
  5  6  1  0
  5 10  2  0
  6  7  1  0
  7  8  1  0
  8  9  1  0
M  END
$$$$
