
     RDKit          3D

 33 36  0  0  1  0  0  0  0  0999 V2000
   -0.2853   -1.5589   -1.2096 C   0  0  0  0  0  0  0  0  0  0  0  0
   -0.5023   -0.3590   -0.2459 C   0  0  2  0  0  0  0  0  0  0  0  0
    0.8254    0.4666   -0.0597 C   0  0  1  0  0  0  0  0  0  0  0  0
    1.8571   -0.1220    0.9126 C   0  0  0  0  0  0  0  0  0  0  0  0
    3.0024    0.7093    1.4319 C   0  0  0  0  0  0  0  0  0  0  0  0
    4.2357    0.0042    1.3080 O   0  0  0  0  0  0  0  0  0  0  0  0
    4.9096   -0.1652    0.0938 C   0  0  0  0  0  0  0  0  0  0  0  0
    6.1745   -0.9730    0.0588 C   0  0  0  0  0  0  0  0  0  0  0  0
    7.4567   -0.1408    0.3444 C   0  0  0  0  0  0  0  0  0  0  0  0
    7.3890    0.5087    1.7430 C   0  0  0  0  0  0  0  0  0  0  0  0
    7.6452    0.9570   -0.7240 C   0  0  0  0  0  0  0  0  0  0  0  0
    8.6735   -1.0877    0.2989 C   0  0  0  0  0  0  0  0  0  0  0  0
    4.4823    0.3758   -0.9621 O   0  0  0  0  0  0  0  0  0  0  0  0
    1.7881   -1.2930    1.2558 O   0  0  0  0  0  0  0  0  0  0  0  0
    1.4504    0.6913   -1.3065 O   0  0  0  0  0  0  0  0  0  0  0  0
    0.3086    1.8268    0.4313 C   0  0  0  0  0  0  0  0  0  0  0  0
   -1.0500    2.0395   -0.2377 C   0  0  0  0  0  0  0  0  0  0  0  0
   -1.0646   -0.8811    1.1394 C   0  0  0  0  0  0  0  0  0  0  0  0
   -2.5617   -0.6190    1.4256 C   0  0  1  0  0  0  0  0  0  0  0  0
   -2.7178    0.6381    2.0332 O   0  0  0  0  0  0  0  0  0  0  0  0
   -1.4356    0.7005   -0.8959 C   0  0  2  0  0  0  0  0  0  0  0  0
   -2.9743    0.4091   -0.8666 C   0  0  1  0  0  0  0  0  0  0  0  0
   -3.5130    0.0510   -2.2831 C   0  0  0  0  0  0  0  0  0  0  0  0
   -4.9720   -0.4709   -2.2826 C   0  0  0  0  0  0  0  0  0  0  0  0
   -3.3941   -0.7005    0.1347 C   0  0  2  0  0  0  0  0  0  0  0  0
   -4.9777   -0.8067    0.2984 C   0  0  2  0  0  0  0  0  0  0  0  0
   -5.5601   -0.1845    1.6233 C   0  0  0  0  0  0  0  0  0  0  0  0
   -5.8531    1.3076    1.5138 C   0  0  0  0  0  0  0  0  0  0  0  0
   -5.3670   -2.3083    0.3267 C   0  0  0  0  0  0  0  0  0  0  0  0
   -5.6298   -0.1813   -0.9547 C   0  0  0  0  0  0  0  0  0  0  0  0
   -6.5225    0.8244   -0.8908 C   0  0  0  0  0  0  0  0  0  0  0  0
   -6.7916    1.5126    0.3729 C   0  0  0  0  0  0  0  0  0  0  0  0
   -7.7745    2.2928    0.4789 O   0  0  0  0  0  0  0  0  0  0  0  0
  2  1  1  6
  2 18  1  0
  2 21  1  0
  2  3  1  0
  3 16  1  0
  3  4  1  1
  3 15  1  0
  4  5  1  0
  4 14  2  0
  5  6  1  0
  6  7  1  0
  7  8  1  0
  7 13  2  0
  8  9  1  0
  9 11  1  0
  9 10  1  0
  9 12  1  0
 16 17  1  0
 21 17  1  1
 18 19  1  0
 25 19  1  1
 19 20  1  6
 21 22  1  0
 22 23  1  6
 22 25  1  0
 23 24  1  0
 24 30  1  0
 25 26  1  0
 26 29  1  1
 26 27  1  0
 26 30  1  0
 27 28  1  0
 28 32  1  0
 30 31  2  0
 31 32  1  0
 32 33  2  0
M  END
$$$$
