
     RDKit          3D

 22 25  0  0  1  0  0  0  0  0999 V2000
    0.5217   -0.3821   -0.2484 O   0  0  0  0  0  0  0  0  0  0  0  0
    0.8208   -0.0080    0.9182 C   0  0  0  0  0  0  0  0  0  0  0  0
    2.2611    0.0632    1.3523 C   0  0  1  0  0  0  0  0  0  0  0  0
    2.7594   -1.2960    1.8743 C   0  0  0  0  0  0  0  0  0  0  0  0
    2.5440   -2.3142    0.9358 O   0  0  0  0  0  0  0  0  0  0  0  0
    3.1650    0.6432    0.2732 C   0  0  0  0  0  0  0  0  0  0  0  0
    3.3996   -0.0358   -0.9407 C   0  0  0  0  0  0  0  0  0  0  0  0
    4.2453    0.5128   -1.9094 C   0  0  0  0  0  0  0  0  0  0  0  0
    4.8645    1.7432   -1.6840 C   0  0  0  0  0  0  0  0  0  0  0  0
    4.6327    2.4323   -0.4918 C   0  0  0  0  0  0  0  0  0  0  0  0
    3.7919    1.8865    0.4825 C   0  0  0  0  0  0  0  0  0  0  0  0
   -0.1824    0.2926    1.8500 O   0  0  0  0  0  0  0  0  0  0  0  0
   -1.5883    0.2249    1.5886 C   0  0  2  0  0  0  0  0  0  0  0  0
   -2.0485   -1.2538    1.3182 C   0  0  0  0  0  0  0  0  0  0  0  0
   -3.1105   -1.3683    0.2031 C   0  0  2  0  0  0  0  0  0  0  0  0
   -2.3892   -1.3630   -1.1497 C   0  0  1  0  0  0  0  0  0  0  0  0
   -3.1615   -0.9209   -2.2413 O   0  0  0  0  0  0  0  0  0  0  0  0
   -2.3774    0.0403   -1.5743 C   0  0  1  0  0  0  0  0  0  0  0  0
   -3.0919    0.8062   -0.4547 C   0  0  2  0  0  0  0  0  0  0  0  0
   -2.0254    1.3118    0.5411 C   0  0  0  0  0  0  0  0  0  0  0  0
   -3.9252   -0.1531    0.2740 N   0  0  0  0  0  0  0  0  0  0  0  0
   -5.2871   -0.3032   -0.2676 C   0  0  0  0  0  0  0  0  0  0  0  0
  1  2  2  0
  3  2  1  6
  2 12  1  0
  3  6  1  0
  3  4  1  0
  4  5  1  0
  6 11  1  0
  6  7  2  0
  7  8  1  0
  8  9  2  0
  9 10  1  0
 10 11  2  0
 13 12  1  6
 13 14  1  0
 13 20  1  0
 15 14  1  1
 15 16  1  0
 15 21  1  0
 16 18  1  0
 16 17  1  6
 18 17  1  6
 18 19  1  0
 19 20  1  1
 19 21  1  0
 21 22  1  0
M  END
$$$$
