CN1C2CCC1CC(OC(C(CO)c3ccccc3)=O)C2
     RDKit          3D

 21 23  0  0  1  0  0  0  0  0999 V2000
    4.1497   -1.5814    2.0617 C   0  0  0  0  0  0  0  0  0  0  0  0
    3.0681   -0.8555    1.3708 N   0  0  0  0  0  0  0  0  0  0  0  0
    2.5778   -1.5751    0.1914 C   0  0  2  0  0  0  0  0  0  0  0  0
    3.5798   -1.2868   -0.9396 C   0  0  0  0  0  0  0  0  0  0  0  0
    4.2176    0.0428   -0.5418 C   0  0  0  0  0  0  0  0  0  0  0  0
    3.5285    0.4065    0.7841 C   0  0  1  0  0  0  0  0  0  0  0  0
    2.2654    1.2640    0.5356 C   0  0  0  0  0  0  0  0  0  0  0  0
    1.2498    0.5472   -0.3961 C   0  0  2  0  0  0  0  0  0  0  0  0
   -0.0380    1.1375   -0.2198 O   0  0  0  0  0  0  0  0  0  0  0  0
   -1.1175    0.9121   -1.0821 C   0  0  0  0  0  0  0  0  0  0  0  0
   -2.4596    1.5019   -0.7406 C   0  0  1  0  0  0  0  0  0  0  0  0
   -3.1380    2.1442   -1.9665 C   0  0  0  0  0  0  0  0  0  0  0  0
   -2.3358    3.1625   -2.5037 O   0  0  0  0  0  0  0  0  0  0  0  0
   -3.3515    0.4536   -0.1036 C   0  0  0  0  0  0  0  0  0  0  0  0
   -3.7537   -0.6929   -0.8188 C   0  0  0  0  0  0  0  0  0  0  0  0
   -4.5862   -1.6454   -0.2222 C   0  0  0  0  0  0  0  0  0  0  0  0
   -5.0232   -1.4685    1.0925 C   0  0  0  0  0  0  0  0  0  0  0  0
   -4.6312   -0.3370    1.8127 C   0  0  0  0  0  0  0  0  0  0  0  0
   -3.8001    0.6202    1.2206 C   0  0  0  0  0  0  0  0  0  0  0  0
   -0.9752    0.2067   -2.1203 O   0  0  0  0  0  0  0  0  0  0  0  0
    1.1853   -0.9877   -0.1392 C   0  0  0  0  0  0  0  0  0  0  0  0
  1  2  1  0
  2  6  1  0
  2  3  1  0
  3  4  1  6
  3 21  1  0
  4  5  1  0
  6  5  1  6
  6  7  1  0
  7  8  1  0
  8 21  1  0
  8  9  1  1
  9 10  1  0
 11 10  1  6
 10 20  2  0
 11 14  1  0
 11 12  1  0
 12 13  1  0
 14 19  1  0
 14 15  2  0
 15 16  1  0
 16 17  2  0
 17 18  1  0
 18 19  2  0
M  END
$$$$
