Fc(cc(C(C(O)=O)C)cc2)c2c1ccccc1
     RDKit          3D

 18 19  0  0  1  0  0  0  0  0999 V2000
    1.2945    1.0116    2.2454 F   0  0  0  0  0  0  0  0  0  0  0  0
    0.4558    0.5530    1.2816 C   0  0  0  0  0  0  0  0  0  0  0  0
   -0.9232    0.5986    1.5088 C   0  0  0  0  0  0  0  0  0  0  0  0
   -1.8254    0.0962    0.5557 C   0  0  0  0  0  0  0  0  0  0  0  0
   -3.3184    0.1667    0.8172 C   0  0  1  0  0  0  0  0  0  0  0  0
   -3.9780    1.1394   -0.1218 C   0  0  0  0  0  0  0  0  0  0  0  0
   -4.0348    0.8732   -1.4872 O   0  0  0  0  0  0  0  0  0  0  0  0
   -4.4833    2.2028    0.3282 O   0  0  0  0  0  0  0  0  0  0  0  0
   -3.9795   -1.2139    0.7306 C   0  0  0  0  0  0  0  0  0  0  0  0
   -1.3167   -0.4493   -0.6372 C   0  0  0  0  0  0  0  0  0  0  0  0
    0.0605   -0.4969   -0.8659 C   0  0  0  0  0  0  0  0  0  0  0  0
    0.9614    0.0062    0.0871 C   0  0  0  0  0  0  0  0  0  0  0  0
    2.4207   -0.0457   -0.1734 C   0  0  0  0  0  0  0  0  0  0  0  0
    3.0146   -1.2254   -0.6585 C   0  0  0  0  0  0  0  0  0  0  0  0
    4.3891   -1.2731   -0.9108 C   0  0  0  0  0  0  0  0  0  0  0  0
    5.1823   -0.1452   -0.6867 C   0  0  0  0  0  0  0  0  0  0  0  0
    4.6021    1.0334   -0.2116 C   0  0  0  0  0  0  0  0  0  0  0  0
    3.2281    1.0861    0.0430 C   0  0  0  0  0  0  0  0  0  0  0  0
  1  2  1  0
  2  3  2  0
  2 12  1  0
  3  4  1  0
  4 10  2  0
  5  4  1  6
  5  9  1  0
  5  6  1  0
  6  7  1  0
  6  8  2  0
 10 11  1  0
 11 12  2  0
 12 13  1  0
 13 18  1  0
 13 14  2  0
 14 15  1  0
 15 16  2  0
 16 17  1  0
 17 18  2  0
M  END
$$$$
