O=C1NC=NC=C1
     RDKit          3D

  7  7  0  0  0  0  0  0  0  0999 V2000
   -0.2051    2.3898   -0.1376 O   0  0  0  0  0  0  0  0  0  0  0  0
   -0.0964    1.1367   -0.0654 C   0  0  0  0  0  0  0  0  0  0  0  0
    1.1352    0.5602   -0.0012 N   0  0  0  0  0  0  0  0  0  0  0  0
    1.2660   -0.7917    0.0770 C   0  0  0  0  0  0  0  0  0  0  0  0
    0.1622   -1.5842    0.0919 N   0  0  0  0  0  0  0  0  0  0  0  0
   -1.0833   -1.0463    0.0295 C   0  0  0  0  0  0  0  0  0  0  0  0
   -1.2406    0.3366   -0.0512 C   0  0  0  0  0  0  0  0  0  0  0  0
  1  2  2  0
  2  7  1  0
  2  3  1  0
  3  4  1  0
  4  5  2  0
  5  6  1  0
  6  7  2  0
M  END
$$$$
