O=C1CCC2(C)C(CC(SC(C)=O)C3C2CCC4(C)C3CCC45OC(CC5)=O)=C1
     RDKit          3D

 29 33  0  0  1  0  0  0  0  0999 V2000
   -6.2395   -0.1982   -1.8040 O   0  0  0  0  0  0  0  0  0  0  0  0
   -5.0457   -0.4808   -1.5175 C   0  0  0  0  0  0  0  0  0  0  0  0
   -4.2328   -1.3063   -2.4735 C   0  0  0  0  0  0  0  0  0  0  0  0
   -2.7304   -1.2274   -2.1608 C   0  0  0  0  0  0  0  0  0  0  0  0
   -2.4074   -1.3824   -0.6391 C   0  0  2  0  0  0  0  0  0  0  0  0
   -2.7868   -2.8075   -0.1683 C   0  0  0  0  0  0  0  0  0  0  0  0
   -3.2505   -0.3792    0.1591 C   0  0  0  0  0  0  0  0  0  0  0  0
   -2.6653    0.2120    1.4191 C   0  0  0  0  0  0  0  0  0  0  0  0
   -1.3235    0.9495    1.1543 C   0  0  1  0  0  0  0  0  0  0  0  0
   -0.3363    0.8793    2.7025 S   0  0  0  0  0  0  0  0  0  0  0  0
   -1.2031    2.2248    3.5217 C   0  0  0  0  0  0  0  0  0  0  0  0
   -0.6779    3.6209    3.4176 C   0  0  0  0  0  0  0  0  0  0  0  0
   -2.1901    1.9868    4.1991 O   0  0  0  0  0  0  0  0  0  0  0  0
   -0.6036    0.3957   -0.1250 C   0  0  2  0  0  0  0  0  0  0  0  0
   -0.8753   -1.1275   -0.3328 C   0  0  2  0  0  0  0  0  0  0  0  0
    0.0982   -1.7403   -1.3835 C   0  0  0  0  0  0  0  0  0  0  0  0
    1.5935   -1.6217   -0.9903 C   0  0  0  0  0  0  0  0  0  0  0  0
    1.9422   -0.3310   -0.1751 C   0  0  2  0  0  0  0  0  0  0  0  0
    2.0728   -0.7029    1.3321 C   0  0  0  0  0  0  0  0  0  0  0  0
    0.8836    0.7630   -0.4301 C   0  0  2  0  0  0  0  0  0  0  0  0
    1.4977    2.0777    0.0445 C   0  0  0  0  0  0  0  0  0  0  0  0
    3.0158    1.8759   -0.1307 C   0  0  0  0  0  0  0  0  0  0  0  0
    3.2226    0.4283   -0.6497 C   0  0  2  0  0  0  0  0  0  0  0  0
    3.2806    0.4786   -2.0720 O   0  0  0  0  0  0  0  0  0  0  0  0
    4.5201    0.1201   -2.5480 C   0  0  0  0  0  0  0  0  0  0  0  0
    5.4818   -0.1807   -1.4733 C   0  0  0  0  0  0  0  0  0  0  0  0
    4.5913   -0.1940   -0.2277 C   0  0  0  0  0  0  0  0  0  0  0  0
    4.7784    0.0203   -3.7755 O   0  0  0  0  0  0  0  0  0  0  0  0
   -4.4800   -0.0160   -0.2422 C   0  0  0  0  0  0  0  0  0  0  0  0
  1  2  2  0
  2  3  1  0
  2 29  1  0
  3  4  1  0
  4  5  1  0
  5  6  1  1
  5 15  1  0
  5  7  1  0
  7  8  1  0
  7 29  2  0
  8  9  1  0
 14  9  1  1
  9 10  1  1
 10 11  1  0
 11 12  1  0
 11 13  2  0
 14 15  1  0
 14 20  1  0
 15 16  1  6
 16 17  1  0
 17 18  1  0
 18 19  1  1
 18 20  1  0
 18 23  1  0
 20 21  1  1
 21 22  1  0
 23 22  1  1
 23 27  1  0
 23 24  1  0
 24 25  1  0
 25 26  1  0
 25 28  2  0
 26 27  1  0
M  END
$$$$
