NC(C(O)=O)C(C)(S)C
     RDKit          3D

  9  8  0  0  1  0  0  0  0  0999 V2000
    0.8993    0.9922    1.6395 N   0  0  0  0  0  0  0  0  0  0  0  0
    0.5691    0.6758    0.2448 C   0  0  1  0  0  0  0  0  0  0  0  0
    1.6674   -0.1450   -0.3936 C   0  0  0  0  0  0  0  0  0  0  0  0
    2.2744    0.3098   -1.5604 O   0  0  0  0  0  0  0  0  0  0  0  0
    2.0520   -1.2260    0.1281 O   0  0  0  0  0  0  0  0  0  0  0  0
   -0.8510    0.0318    0.1241 C   0  0  0  0  0  0  0  0  0  0  0  0
   -0.9669   -1.3090    0.8759 C   0  0  0  0  0  0  0  0  0  0  0  0
   -2.0886    1.1771    0.8481 S   0  0  0  0  0  0  0  0  0  0  0  0
   -1.2193   -0.1895   -1.3564 C   0  0  0  0  0  0  0  0  0  0  0  0
  2  1  1  1
  2  3  1  0
  2  6  1  0
  3  4  1  0
  3  5  2  0
  6  7  1  0
  6  9  1  0
  6  8  1  0
M  END
$$$$
