O=C(C(SCCO2)=C2C)Nc1ccccc1
     RDKit          3D

 16 17  0  0  0  0  0  0  0  0999 V2000
   -0.1658   -1.4290    0.8431 O   0  0  0  0  0  0  0  0  0  0  0  0
    0.1401   -0.4450    0.1161 C   0  0  0  0  0  0  0  0  0  0  0  0
    1.5653   -0.1306   -0.1551 C   0  0  0  0  0  0  0  0  0  0  0  0
    1.9916    1.5903   -0.4604 S   0  0  0  0  0  0  0  0  0  0  0  0
    3.3698    1.5397    0.7111 C   0  0  0  0  0  0  0  0  0  0  0  0
    4.4313    0.5936    0.1559 C   0  0  0  0  0  0  0  0  0  0  0  0
    3.9019   -0.6897   -0.2039 O   0  0  0  0  0  0  0  0  0  0  0  0
    2.5460   -1.0631   -0.1772 C   0  0  0  0  0  0  0  0  0  0  0  0
    2.2565   -2.5363   -0.1513 C   0  0  0  0  0  0  0  0  0  0  0  0
   -0.8957    0.3739   -0.4513 N   0  0  0  0  0  0  0  0  0  0  0  0
   -2.2589    0.3761    0.0064 C   0  0  0  0  0  0  0  0  0  0  0  0
   -2.5778    0.1880    1.3646 C   0  0  0  0  0  0  0  0  0  0  0  0
   -3.9108    0.2194    1.7868 C   0  0  0  0  0  0  0  0  0  0  0  0
   -4.9334    0.4508    0.8634 C   0  0  0  0  0  0  0  0  0  0  0  0
   -4.6243    0.6603   -0.4828 C   0  0  0  0  0  0  0  0  0  0  0  0
   -3.2928    0.6306   -0.9089 C   0  0  0  0  0  0  0  0  0  0  0  0
  1  2  2  0
  2  3  1  0
  2 10  1  0
  3  8  2  0
  3  4  1  0
  4  5  1  0
  5  6  1  0
  6  7  1  0
  7  8  1  0
  8  9  1  0
 10 11  1  0
 11 16  1  0
 11 12  2  0
 12 13  1  0
 13 14  2  0
 14 15  1  0
 15 16  2  0
M  END
$$$$
