Cc(c(C)ccc1)c1C
     RDKit          3D

  9  9  0  0  0  0  0  0  0  0999 V2000
   -0.1517    1.9607   -0.1310 C   0  0  0  0  0  0  0  0  0  0  0  0
   -0.0476    0.4525   -0.0321 C   0  0  0  0  0  0  0  0  0  0  0  0
    1.2229   -0.1430    0.1904 C   0  0  0  0  0  0  0  0  0  0  0  0
    2.4706    0.6928    0.3304 C   0  0  0  0  0  0  0  0  0  0  0  0
    1.3308   -1.5393    0.2837 C   0  0  0  0  0  0  0  0  0  0  0  0
    0.2047   -2.3472    0.1603 C   0  0  0  0  0  0  0  0  0  0  0  0
   -1.0459   -1.7768   -0.0579 C   0  0  0  0  0  0  0  0  0  0  0  0
   -1.1924   -0.3833   -0.1568 C   0  0  0  0  0  0  0  0  0  0  0  0
   -2.5713    0.1777   -0.3936 C   0  0  0  0  0  0  0  0  0  0  0  0
  1  2  1  0
  2  3  2  0
  2  8  1  0
  3  4  1  0
  3  5  1  0
  5  6  2  0
  6  7  1  0
  7  8  2  0
  8  9  1  0
M  END
$$$$
