Cc(c(O)ccc1)c1C
     RDKit          3D

  9  9  0  0  0  0  0  0  0  0999 V2000
    0.7579   -1.8813   -0.0585 C   0  0  0  0  0  0  0  0  0  0  0  0
    0.4086   -0.4103   -0.0416 C   0  0  0  0  0  0  0  0  0  0  0  0
    1.4445    0.5485   -0.1805 C   0  0  0  0  0  0  0  0  0  0  0  0
    2.7839    0.1799   -0.3332 O   0  0  0  0  0  0  0  0  0  0  0  0
    1.1427    1.9129   -0.1674 C   0  0  0  0  0  0  0  0  0  0  0  0
   -0.1714    2.3463   -0.0188 C   0  0  0  0  0  0  0  0  0  0  0  0
   -1.2019    1.4195    0.1189 C   0  0  0  0  0  0  0  0  0  0  0  0
   -0.9327    0.0401    0.1099 C   0  0  0  0  0  0  0  0  0  0  0  0
   -2.0861   -0.9182    0.2627 C   0  0  0  0  0  0  0  0  0  0  0  0
  1  2  1  0
  2  8  2  0
  2  3  1  0
  3  5  2  0
  3  4  1  0
  5  6  1  0
  6  7  2  0
  7  8  1  0
  8  9  1  0
M  END
$$$$
