Clc2c(ccc(Cl)c2Cl)c1c(Cl)c(Cl)ccc1
     RDKit          3D

 17 18  0  0  0  0  0  0  0  0999 V2000
   -0.7904    2.6218   -0.6331 Cl  0  0  0  0  0  0  0  0  0  0  0  0
   -1.5224    1.0662   -0.2272 C   0  0  0  0  0  0  0  0  0  0  0  0
   -0.7080   -0.0563    0.0332 C   0  0  0  0  0  0  0  0  0  0  0  0
   -1.3030   -1.2908    0.3285 C   0  0  0  0  0  0  0  0  0  0  0  0
   -2.6914   -1.4146    0.3651 C   0  0  0  0  0  0  0  0  0  0  0  0
   -3.5053   -0.3083    0.1095 C   0  0  0  0  0  0  0  0  0  0  0  0
   -5.2515   -0.5141    0.1680 Cl  0  0  0  0  0  0  0  0  0  0  0  0
   -2.9251    0.9375   -0.1888 C   0  0  0  0  0  0  0  0  0  0  0  0
   -3.9552    2.3317   -0.5168 Cl  0  0  0  0  0  0  0  0  0  0  0  0
    0.7670    0.0436    0.0166 C   0  0  0  0  0  0  0  0  0  0  0  0
    1.5321   -0.5648   -1.0022 C   0  0  0  0  0  0  0  0  0  0  0  0
    0.7395   -1.4267   -2.3238 Cl  0  0  0  0  0  0  0  0  0  0  0  0
    2.9356   -0.4594   -0.9752 C   0  0  0  0  0  0  0  0  0  0  0  0
    3.9321   -1.1954   -2.2241 Cl  0  0  0  0  0  0  0  0  0  0  0  0
    3.5647    0.2442    0.0574 C   0  0  0  0  0  0  0  0  0  0  0  0
    2.8069    0.8453    1.0630 C   0  0  0  0  0  0  0  0  0  0  0  0
    1.4151    0.7457    1.0448 C   0  0  0  0  0  0  0  0  0  0  0  0
  1  2  1  0
  2  3  2  0
  2  8  1  0
  3  4  1  0
  3 10  1  0
  4  5  2  0
  5  6  1  0
  6  7  1  0
  6  8  2  0
  8  9  1  0
 10 17  1  0
 10 11  2  0
 11 12  1  0
 11 13  1  0
 13 15  2  0
 13 14  1  0
 15 16  1  0
 16 17  2  0
M  END
$$$$
