Clc(c(Cl)c2)c(c(Cl)c2Cl)c1c(Cl)c(Cl)ccc1
     RDKit          3D

 18 19  0  0  0  0  0  0  0  0999 V2000
    0.8670    0.7829   -2.5624 Cl  0  0  0  0  0  0  0  0  0  0  0  0
    1.5562    0.1538   -1.0628 C   0  0  0  0  0  0  0  0  0  0  0  0
    2.9351   -0.1021   -0.9797 C   0  0  0  0  0  0  0  0  0  0  0  0
    4.0039    0.1930   -2.3456 Cl  0  0  0  0  0  0  0  0  0  0  0  0
    3.4833   -0.6015    0.2038 C   0  0  0  0  0  0  0  0  0  0  0  0
    0.7292   -0.0964    0.0523 C   0  0  0  0  0  0  0  0  0  0  0  0
    1.2910   -0.5998    1.2443 C   0  0  0  0  0  0  0  0  0  0  0  0
    0.2682   -0.9192    2.6483 Cl  0  0  0  0  0  0  0  0  0  0  0  0
    2.6717   -0.8509    1.3127 C   0  0  0  0  0  0  0  0  0  0  0  0
    3.4151   -1.4805    2.7777 Cl  0  0  0  0  0  0  0  0  0  0  0  0
   -0.7228    0.1674   -0.0284 C   0  0  0  0  0  0  0  0  0  0  0  0
   -1.6220   -0.8308   -0.4578 C   0  0  0  0  0  0  0  0  0  0  0  0
   -1.0274   -2.4295   -0.9118 Cl  0  0  0  0  0  0  0  0  0  0  0  0
   -2.9984   -0.5445   -0.5225 C   0  0  0  0  0  0  0  0  0  0  0  0
   -4.1597   -1.7551   -1.0514 Cl  0  0  0  0  0  0  0  0  0  0  0  0
   -3.4664    0.7240   -0.1619 C   0  0  0  0  0  0  0  0  0  0  0  0
   -2.5736    1.7094    0.2627 C   0  0  0  0  0  0  0  0  0  0  0  0
   -1.2070    1.4339    0.3297 C   0  0  0  0  0  0  0  0  0  0  0  0
  1  2  1  0
  2  6  2  0
  2  3  1  0
  3  4  1  0
  3  5  2  0
  5  9  1  0
  6 11  1  0
  6  7  1  0
  7  9  2  0
  7  8  1  0
  9 10  1  0
 11 18  1  0
 11 12  2  0
 12 13  1  0
 12 14  1  0
 14 16  2  0
 14 15  1  0
 16 17  1  0
 17 18  2  0
M  END
$$$$
