
     RDKit          3D

 18 19  0  0  1  0  0  0  0  0999 V2000
   -1.1769   -2.3968   -2.6656 Cl  0  0  0  0  0  0  0  0  0  0  0  0
    0.2337   -1.5667   -1.9494 C   0  0  0  0  0  0  0  0  0  0  0  0
    0.8063   -0.2706   -3.0438 Cl  0  0  0  0  0  0  0  0  0  0  0  0
   -0.0393   -1.1112   -0.4903 C   0  0  1  0  0  0  0  0  0  0  0  0
    1.1873   -0.4343    0.1003 C   0  0  0  0  0  0  0  0  0  0  0  0
    1.4100    0.9476   -0.0604 C   0  0  0  0  0  0  0  0  0  0  0  0
    2.5468    1.5504    0.4855 C   0  0  0  0  0  0  0  0  0  0  0  0
    3.4764    0.7833    1.1932 C   0  0  0  0  0  0  0  0  0  0  0  0
    4.9023    1.5422    1.8770 Cl  0  0  0  0  0  0  0  0  0  0  0  0
    3.2697   -0.5898    1.3529 C   0  0  0  0  0  0  0  0  0  0  0  0
    2.1342   -1.1966    0.8085 C   0  0  0  0  0  0  0  0  0  0  0  0
   -1.3101   -0.2931   -0.2252 C   0  0  0  0  0  0  0  0  0  0  0  0
   -1.9605    0.4423   -1.2413 C   0  0  0  0  0  0  0  0  0  0  0  0
   -3.1017    1.1975   -0.9623 C   0  0  0  0  0  0  0  0  0  0  0  0
   -3.6144    1.2422    0.3318 C   0  0  0  0  0  0  0  0  0  0  0  0
   -2.9864    0.5329    1.3536 C   0  0  0  0  0  0  0  0  0  0  0  0
   -1.8420   -0.2288    1.0894 C   0  0  0  0  0  0  0  0  0  0  0  0
   -1.1038   -1.0841    2.4424 Cl  0  0  0  0  0  0  0  0  0  0  0  0
  1  2  1  0
  4  2  1  6
  2  3  1  0
  4  5  1  0
  4 12  1  0
  5 11  1  0
  5  6  2  0
  6  7  1  0
  7  8  2  0
  8 10  1  0
  8  9  1  0
 10 11  2  0
 12 13  2  0
 12 17  1  0
 13 14  1  0
 14 15  2  0
 15 16  1  0
 16 17  2  0
 17 18  1  0
M  END
$$$$
