OC1CCC2(C)C(CCC3C2CCC4(C)C3CCC4=O)C1
     RDKit          3D

 21 24  0  0  1  0  0  0  0  0999 V2000
    5.0069    0.9394   -0.6082 O   0  0  0  0  0  0  0  0  0  0  0  0
    4.3080   -0.2790   -0.6125 C   0  0  2  0  0  0  0  0  0  0  0  0
    3.3934   -0.3728   -1.8679 C   0  0  0  0  0  0  0  0  0  0  0  0
    2.0331    0.3808   -1.7874 C   0  0  0  0  0  0  0  0  0  0  0  0
    1.4849    0.5946   -0.3419 C   0  0  2  0  0  0  0  0  0  0  0  0
    1.9727    1.9845    0.1752 C   0  0  0  0  0  0  0  0  0  0  0  0
    2.0408   -0.5799    0.5437 C   0  0  2  0  0  0  0  0  0  0  0  0
    1.2281   -0.7808    1.8447 C   0  0  0  0  0  0  0  0  0  0  0  0
   -0.2480   -1.1778    1.5376 C   0  0  0  0  0  0  0  0  0  0  0  0
   -0.6678   -0.7998    0.0943 C   0  0  2  0  0  0  0  0  0  0  0  0
   -0.0963    0.6043   -0.2599 C   0  0  2  0  0  0  0  0  0  0  0  0
   -0.8712    1.2707   -1.4337 C   0  0  0  0  0  0  0  0  0  0  0  0
   -2.3912    1.4673   -1.1142 C   0  0  0  0  0  0  0  0  0  0  0  0
   -2.9567    0.4327   -0.0881 C   0  0  2  0  0  0  0  0  0  0  0  0
   -3.0113    1.0152    1.3519 C   0  0  0  0  0  0  0  0  0  0  0  0
   -2.1780   -0.8829   -0.2306 C   0  0  2  0  0  0  0  0  0  0  0  0
   -3.0629   -1.9795    0.3581 C   0  0  0  0  0  0  0  0  0  0  0  0
   -4.4770   -1.5467   -0.0689 C   0  0  0  0  0  0  0  0  0  0  0  0
   -4.3348   -0.0825   -0.3707 C   0  0  0  0  0  0  0  0  0  0  0  0
   -5.2617    0.6189   -0.7464 O   0  0  0  0  0  0  0  0  0  0  0  0
    3.5606   -0.4708    0.7406 C   0  0  0  0  0  0  0  0  0  0  0  0
  2  1  1  1
  2  3  1  0
  2 21  1  0
  3  4  1  0
  4  5  1  0
  5  6  1  1
  5  7  1  0
  5 11  1  0
  7  8  1  1
  7 21  1  0
  8  9  1  0
 10  9  1  1
 10 11  1  0
 10 16  1  0
 11 12  1  6
 12 13  1  0
 13 14  1  0
 14 15  1  1
 14 16  1  0
 14 19  1  0
 16 17  1  1
 17 18  1  0
 18 19  1  0
 19 20  2  0
M  END
$$$$
