CC(C3=CC2)(CCC(O)C3)C1C2C(CCC4=O)C4(C)CC1
     RDKit          3D

 21 24  0  0  1  0  0  0  0  0999 V2000
    1.8237   -1.7404    1.4493 C   0  0  0  0  0  0  0  0  0  0  0  0
    1.4720   -0.8787    0.1966 C   0  0  1  0  0  0  0  0  0  0  0  0
    1.8584    0.5756    0.4502 C   0  0  0  0  0  0  0  0  0  0  0  0
    1.2683    1.5539   -0.2576 C   0  0  0  0  0  0  0  0  0  0  0  0
    0.3613    1.2147   -1.3976 C   0  0  0  0  0  0  0  0  0  0  0  0
    2.3771   -1.3897   -0.9835 C   0  0  0  0  0  0  0  0  0  0  0  0
    3.6804   -0.5683   -1.2119 C   0  0  0  0  0  0  0  0  0  0  0  0
    4.2898    0.0296    0.0878 C   0  0  1  0  0  0  0  0  0  0  0  0
    5.4042    0.8285   -0.2207 O   0  0  0  0  0  0  0  0  0  0  0  0
    3.2650    0.8289    0.9492 C   0  0  0  0  0  0  0  0  0  0  0  0
   -0.0842   -1.0147   -0.1609 C   0  0  2  0  0  0  0  0  0  0  0  0
   -0.7128    0.1907   -0.9806 C   0  0  1  0  0  0  0  0  0  0  0  0
   -1.9159    0.9363   -0.2905 C   0  0  1  0  0  0  0  0  0  0  0  0
   -2.7385    1.7617   -1.3180 C   0  0  0  0  0  0  0  0  0  0  0  0
   -3.9754    0.9488   -1.6771 C   0  0  0  0  0  0  0  0  0  0  0  0
   -4.1091   -0.0081   -0.5605 C   0  0  0  0  0  0  0  0  0  0  0  0
   -5.0764   -0.7455   -0.4398 O   0  0  0  0  0  0  0  0  0  0  0  0
   -2.9659    0.0130    0.4025 C   0  0  2  0  0  0  0  0  0  0  0  0
   -3.4550    0.6463    1.7252 C   0  0  0  0  0  0  0  0  0  0  0  0
   -2.4446   -1.4163    0.6481 C   0  0  0  0  0  0  0  0  0  0  0  0
   -0.9766   -1.3863    1.0506 C   0  0  0  0  0  0  0  0  0  0  0  0
  2  1  1  1
  2  6  1  0
  2 11  1  0
  2  3  1  0
  3 10  1  0
  3  4  2  0
  4  5  1  0
 12  5  1  1
  6  7  1  0
  7  8  1  0
  8 10  1  0
  8  9  1  6
 11 21  1  1
 11 12  1  0
 12 13  1  0
 13 14  1  6
 13 18  1  0
 14 15  1  0
 15 16  1  0
 16 18  1  0
 16 17  2  0
 18 19  1  1
 18 20  1  0
 20 21  1  0
M  END
$$$$
