Clc(cc3)ccc3C(n2c(C)c(CC(O)=O)c1cc(OC)ccc12)=O
     RDKit          3D

 25 27  0  0  0  0  0  0  0  0999 V2000
    6.1939    1.4760    1.8897 Cl  0  0  0  0  0  0  0  0  0  0  0  0
    4.8855    0.9484    0.8473 C   0  0  0  0  0  0  0  0  0  0  0  0
    3.7399    0.3693    1.4006 C   0  0  0  0  0  0  0  0  0  0  0  0
    2.6961   -0.0519    0.5716 C   0  0  0  0  0  0  0  0  0  0  0  0
    4.9885    1.1027   -0.5381 C   0  0  0  0  0  0  0  0  0  0  0  0
    3.9465    0.6831   -1.3707 C   0  0  0  0  0  0  0  0  0  0  0  0
    2.7846    0.1094   -0.8235 C   0  0  0  0  0  0  0  0  0  0  0  0
    1.6821   -0.3367   -1.7080 C   0  0  0  0  0  0  0  0  0  0  0  0
    0.3537   -0.5394   -1.1979 N   0  0  0  0  0  0  0  0  0  0  0  0
   -0.4024   -1.6608   -1.3279 C   0  0  0  0  0  0  0  0  0  0  0  0
    0.0490   -2.9101   -2.0276 C   0  0  0  0  0  0  0  0  0  0  0  0
   -1.6608   -1.4651   -0.7533 C   0  0  0  0  0  0  0  0  0  0  0  0
   -2.7820   -2.4592   -0.6516 C   0  0  0  0  0  0  0  0  0  0  0  0
   -2.6253   -3.2885    0.5826 C   0  0  0  0  0  0  0  0  0  0  0  0
   -2.6884   -2.6865    1.8357 O   0  0  0  0  0  0  0  0  0  0  0  0
   -2.4403   -4.5315    0.4903 O   0  0  0  0  0  0  0  0  0  0  0  0
   -1.6374   -0.1821   -0.2364 C   0  0  0  0  0  0  0  0  0  0  0  0
   -2.6104    0.5416    0.4537 C   0  0  0  0  0  0  0  0  0  0  0  0
   -2.3165    1.8633    0.8379 C   0  0  0  0  0  0  0  0  0  0  0  0
   -3.2981    2.5840    1.5338 O   0  0  0  0  0  0  0  0  0  0  0  0
   -3.1412    3.9253    1.9847 C   0  0  0  0  0  0  0  0  0  0  0  0
   -1.0522    2.4245    0.5109 C   0  0  0  0  0  0  0  0  0  0  0  0
   -0.0915    1.6704   -0.1844 C   0  0  0  0  0  0  0  0  0  0  0  0
   -0.4099    0.3550   -0.5327 C   0  0  0  0  0  0  0  0  0  0  0  0
    1.9117   -0.5622   -2.9273 O   0  0  0  0  0  0  0  0  0  0  0  0
  1  2  1  0
  2  3  2  0
  2  5  1  0
  3  4  1  0
  4  7  2  0
  5  6  2  0
  6  7  1  0
  7  8  1  0
  8  9  1  0
  8 25  2  0
  9 10  1  0
  9 24  1  0
 10 11  1  0
 10 12  2  0
 12 13  1  0
 12 17  1  0
 13 14  1  0
 14 15  1  0
 14 16  2  0
 17 18  1  0
 17 24  2  0
 18 19  2  0
 19 22  1  0
 19 20  1  0
 20 21  1  0
 22 23  2  0
 23 24  1  0
M  END
$$$$
