O=C(NN)Nc1ccccc1
     RDKit          3D

 11 11  0  0  0  0  0  0  0  0999 V2000
    2.1734   -1.6499   -2.3967 O   0  0  0  0  0  0  0  0  0  0  0  0
    1.7874   -0.9259   -1.4412 C   0  0  0  0  0  0  0  0  0  0  0  0
    2.3604    0.3762   -1.2711 N   0  0  0  0  0  0  0  0  0  0  0  0
    2.3368    1.0185   -0.0226 N   0  0  0  0  0  0  0  0  0  0  0  0
    0.8270   -1.4459   -0.5125 N   0  0  0  0  0  0  0  0  0  0  0  0
   -0.3073   -0.7039   -0.0348 C   0  0  0  0  0  0  0  0  0  0  0  0
   -0.9191   -1.0798    1.1713 C   0  0  0  0  0  0  0  0  0  0  0  0
   -2.0393   -0.3877    1.6420 C   0  0  0  0  0  0  0  0  0  0  0  0
   -2.5657    0.6764    0.9053 C   0  0  0  0  0  0  0  0  0  0  0  0
   -1.9766    1.0459   -0.3065 C   0  0  0  0  0  0  0  0  0  0  0  0
   -0.8564    0.3562   -0.7809 C   0  0  0  0  0  0  0  0  0  0  0  0
  1  2  2  0
  2  5  1  0
  2  3  1  0
  3  4  1  0
  5  6  1  0
  6 11  2  0
  6  7  1  0
  7  8  2  0
  8  9  1  0
  9 10  2  0
 10 11  1  0
M  END
$$$$
