NC(NCc1ccccc1)=O
     RDKit          3D

 11 11  0  0  0  0  0  0  0  0999 V2000
    3.8313   -0.6641   -1.3473 N   0  0  0  0  0  0  0  0  0  0  0  0
    3.0449    0.1568   -0.4851 C   0  0  0  0  0  0  0  0  0  0  0  0
    1.6262   -0.0291   -0.4152 N   0  0  0  0  0  0  0  0  0  0  0  0
    0.7896    0.7959    0.4562 C   0  0  0  0  0  0  0  0  0  0  0  0
   -0.6524    0.3684    0.3760 C   0  0  0  0  0  0  0  0  0  0  0  0
   -1.0444   -0.8792    0.8895 C   0  0  0  0  0  0  0  0  0  0  0  0
   -2.3814   -1.2827    0.8169 C   0  0  0  0  0  0  0  0  0  0  0  0
   -3.3350   -0.4447    0.2325 C   0  0  0  0  0  0  0  0  0  0  0  0
   -2.9533    0.7981   -0.2802 C   0  0  0  0  0  0  0  0  0  0  0  0
   -1.6172    1.2057   -0.2098 C   0  0  0  0  0  0  0  0  0  0  0  0
    3.6065    1.0440    0.2124 O   0  0  0  0  0  0  0  0  0  0  0  0
  1  2  1  0
  2  3  1  0
  2 11  2  0
  3  4  1  0
  4  5  1  0
  5 10  2  0
  5  6  1  0
  6  7  2  0
  7  8  1  0
  8  9  2  0
  9 10  1  0
M  END
$$$$
