Nc1ncc(Cc2cc(OC)c(OCCOC)c(OC)c2)c(N)n1
     RDKit          3D

 24 25  0  0  0  0  0  0  0  0999 V2000
    6.6370    0.1430    1.3240 N   0  0  0  0  0  0  0  0  0  0  0  0
    5.5322   -0.1864    0.4819 C   0  0  0  0  0  0  0  0  0  0  0  0
    5.0980   -1.4693    0.4062 N   0  0  0  0  0  0  0  0  0  0  0  0
    4.0473   -1.8060   -0.3865 C   0  0  0  0  0  0  0  0  0  0  0  0
    3.3947   -0.8309   -1.1557 C   0  0  0  0  0  0  0  0  0  0  0  0
    2.1913   -1.2210   -1.9839 C   0  0  0  0  0  0  0  0  0  0  0  0
    0.9093   -0.8255   -1.2948 C   0  0  0  0  0  0  0  0  0  0  0  0
    0.0428    0.1038   -1.8822 C   0  0  0  0  0  0  0  0  0  0  0  0
   -1.1547    0.4731   -1.2397 C   0  0  0  0  0  0  0  0  0  0  0  0
   -2.0493    1.3939   -1.8129 O   0  0  0  0  0  0  0  0  0  0  0  0
   -1.8642    2.0279   -3.0729 C   0  0  0  0  0  0  0  0  0  0  0  0
   -1.4894   -0.0889    0.0023 C   0  0  0  0  0  0  0  0  0  0  0  0
   -2.6972    0.3415    0.5877 O   0  0  0  0  0  0  0  0  0  0  0  0
   -3.3069   -0.2026    1.7567 C   0  0  0  0  0  0  0  0  0  0  0  0
   -4.6700    0.4467    1.9647 C   0  0  0  0  0  0  0  0  0  0  0  0
   -4.4967    1.8302    2.1885 O   0  0  0  0  0  0  0  0  0  0  0  0
   -5.7570    2.4666    2.1778 C   0  0  0  0  0  0  0  0  0  0  0  0
   -0.6196   -1.0387    0.6018 C   0  0  0  0  0  0  0  0  0  0  0  0
   -0.9263   -1.5680    1.8626 O   0  0  0  0  0  0  0  0  0  0  0  0
   -0.3432   -2.7541    2.4139 C   0  0  0  0  0  0  0  0  0  0  0  0
    0.5622   -1.4090   -0.0658 C   0  0  0  0  0  0  0  0  0  0  0  0
    3.8692    0.5000   -1.0663 C   0  0  0  0  0  0  0  0  0  0  0  0
    3.2754    1.5707   -1.8034 N   0  0  0  0  0  0  0  0  0  0  0  0
    4.9187    0.7824   -0.2483 N   0  0  0  0  0  0  0  0  0  0  0  0
  1  2  1  0
  2  3  2  0
  2 24  1  0
  3  4  1  0
  4  5  2  0
  5  6  1  0
  5 22  1  0
  6  7  1  0
  7 21  1  0
  7  8  2  0
  8  9  1  0
  9 12  2  0
  9 10  1  0
 10 11  1  0
 12 18  1  0
 12 13  1  0
 13 14  1  0
 14 15  1  0
 15 16  1  0
 16 17  1  0
 18 21  2  0
 18 19  1  0
 19 20  1  0
 22 23  1  0
 22 24  2  0
M  END
$$$$
