CC(Nc1ccc(Cl)cc1)=O
     RDKit          3D

 11 11  0  0  0  0  0  0  0  0999 V2000
   -2.5561   -0.1834   -0.7039 C   0  0  0  0  0  0  0  0  0  0  0  0
   -2.2642   -0.7923    0.6351 C   0  0  0  0  0  0  0  0  0  0  0  0
   -0.9223   -0.9349    1.1271 N   0  0  0  0  0  0  0  0  0  0  0  0
    0.2205   -0.2987    0.5383 C   0  0  0  0  0  0  0  0  0  0  0  0
    1.3588   -1.0604    0.2373 C   0  0  0  0  0  0  0  0  0  0  0  0
    2.4909   -0.4504   -0.3120 C   0  0  0  0  0  0  0  0  0  0  0  0
    2.4997    0.9287   -0.5466 C   0  0  0  0  0  0  0  0  0  0  0  0
    3.9212    1.6939   -1.2325 Cl  0  0  0  0  0  0  0  0  0  0  0  0
    1.3779    1.6985   -0.2213 C   0  0  0  0  0  0  0  0  0  0  0  0
    0.2449    1.0896    0.3273 C   0  0  0  0  0  0  0  0  0  0  0  0
   -3.2189   -1.2494    1.3185 O   0  0  0  0  0  0  0  0  0  0  0  0
  1  2  1  0
  2  3  1  0
  2 11  2  0
  3  4  1  0
  4 10  2  0
  4  5  1  0
  5  6  2  0
  6  7  1  0
  7  9  2  0
  7  8  1  0
  9 10  1  0
M  END
$$$$
