Fc1ccc(F)cc1
     RDKit          3D

  8  8  0  0  0  0  0  0  0  0999 V2000
    2.1482   -1.7246    0.0474 F   0  0  0  0  0  0  0  0  0  0  0  0
    1.0911   -0.8760    0.0241 C   0  0  0  0  0  0  0  0  0  0  0  0
   -0.2130   -1.3828    0.0044 C   0  0  0  0  0  0  0  0  0  0  0  0
   -1.3038   -0.5071   -0.0196 C   0  0  0  0  0  0  0  0  0  0  0  0
   -1.0911    0.8760   -0.0241 C   0  0  0  0  0  0  0  0  0  0  0  0
   -2.1482    1.7246   -0.0474 F   0  0  0  0  0  0  0  0  0  0  0  0
    0.2130    1.3828   -0.0044 C   0  0  0  0  0  0  0  0  0  0  0  0
    1.3038    0.5071    0.0196 C   0  0  0  0  0  0  0  0  0  0  0  0
  1  2  1  0
  2  8  2  0
  2  3  1  0
  3  4  2  0
  4  5  1  0
  5  7  2  0
  5  6  1  0
  7  8  1  0
M  END
$$$$
