Clc1cc(Cl)ccc1
     RDKit          3D

  8  8  0  0  0  0  0  0  0  0999 V2000
   -2.6702   -1.6270    0.0385 Cl  0  0  0  0  0  0  0  0  0  0  0  0
   -1.1864   -0.6916    0.0165 C   0  0  0  0  0  0  0  0  0  0  0  0
    0.0529   -1.3430    0.0250 C   0  0  0  0  0  0  0  0  0  0  0  0
    1.2371   -0.5964    0.0075 C   0  0  0  0  0  0  0  0  0  0  0  0
    2.7898   -1.4125    0.0181 Cl  0  0  0  0  0  0  0  0  0  0  0  0
    1.1809    0.8021   -0.0186 C   0  0  0  0  0  0  0  0  0  0  0  0
   -0.0572    1.4525   -0.0270 C   0  0  0  0  0  0  0  0  0  0  0  0
   -1.2403    0.7070   -0.0095 C   0  0  0  0  0  0  0  0  0  0  0  0
  1  2  1  0
  2  8  2  0
  2  3  1  0
  3  4  2  0
  4  6  1  0
  4  5  1  0
  6  7  2  0
  7  8  1  0
M  END
$$$$
