O=COCC(C)C
     RDKit          3D

  7  6  0  0  0  0  0  0  0  0999 V2000
    3.4722   -0.0717    0.3770 O   0  0  0  0  0  0  0  0  0  0  0  0
    2.7270    0.5909   -0.3935 C   0  0  0  0  0  0  0  0  0  0  0  0
    1.3389    0.4434   -0.3565 O   0  0  0  0  0  0  0  0  0  0  0  0
    0.6850   -0.4516    0.5405 C   0  0  0  0  0  0  0  0  0  0  0  0
   -0.8391   -0.3963    0.3496 C   0  0  0  0  0  0  0  0  0  0  0  0
   -1.3867    1.0024    0.6593 C   0  0  0  0  0  0  0  0  0  0  0  0
   -1.2374   -0.8348   -1.0651 C   0  0  0  0  0  0  0  0  0  0  0  0
  1  2  2  0
  2  3  1  0
  3  4  1  0
  4  5  1  0
  5  6  1  0
  5  7  1  0
M  END
$$$$
