CCCCCC(O)C
     RDKit          3D

  8  7  0  0  1  0  0  0  0  0999 V2000
   -2.8069    0.6102    0.2859 C   0  0  0  0  0  0  0  0  0  0  0  0
   -2.4623   -0.7581   -0.2989 C   0  0  0  0  0  0  0  0  0  0  0  0
   -0.9721   -0.8988   -0.6511 C   0  0  0  0  0  0  0  0  0  0  0  0
   -0.0461   -0.9113    0.5867 C   0  0  0  0  0  0  0  0  0  0  0  0
    0.6837    0.4280    0.8105 C   0  0  0  0  0  0  0  0  0  0  0  0
    1.8718    0.6551   -0.1530 C   0  0  1  0  0  0  0  0  0  0  0  0
    2.2235    2.0143   -0.1472 O   0  0  0  0  0  0  0  0  0  0  0  0
    3.1008   -0.1613    0.2571 C   0  0  0  0  0  0  0  0  0  0  0  0
  1  2  1  0
  2  3  1  0
  3  4  1  0
  4  5  1  0
  6  5  1  1
  6  8  1  0
  6  7  1  0
M  END
$$$$
