ClCCCCCC
     RDKit          3D

  7  6  0  0  0  0  0  0  0  0999 V2000
    4.6032   -0.1390    0.2498 Cl  0  0  0  0  0  0  0  0  0  0  0  0
    3.0662   -0.6456   -0.4949 C   0  0  0  0  0  0  0  0  0  0  0  0
    1.8950    0.0582    0.1887 C   0  0  0  0  0  0  0  0  0  0  0  0
    0.5592   -0.3619   -0.4353 C   0  0  0  0  0  0  0  0  0  0  0  0
   -0.6155    0.3448    0.2514 C   0  0  0  0  0  0  0  0  0  0  0  0
   -1.9511   -0.0755   -0.3728 C   0  0  0  0  0  0  0  0  0  0  0  0
   -3.1228    0.6258    0.3080 C   0  0  0  0  0  0  0  0  0  0  0  0
  1  2  1  0
  2  3  1  0
  3  4  1  0
  4  5  1  0
  5  6  1  0
  6  7  1  0
M  END
$$$$
