C1=CC=CC=CC1
     RDKit          3D

  7  7  0  0  0  0  0  0  0  0999 V2000
   -0.6015   -1.3810    0.3123 C   0  0  0  0  0  0  0  0  0  0  0  0
    0.7332   -1.3900    0.3752 C   0  0  0  0  0  0  0  0  0  0  0  0
    1.6079   -0.3404   -0.1908 C   0  0  0  0  0  0  0  0  0  0  0  0
    1.3161    0.9684   -0.2601 C   0  0  0  0  0  0  0  0  0  0  0  0
    0.0667    1.5997    0.2169 C   0  0  0  0  0  0  0  0  0  0  0  0
   -1.1367    1.0198    0.1851 C   0  0  0  0  0  0  0  0  0  0  0  0
   -1.3710   -0.3279   -0.4198 C   0  0  0  0  0  0  0  0  0  0  0  0
  1  7  1  0
  1  2  2  0
  2  3  1  0
  3  4  2  0
  4  5  1  0
  5  6  2  0
  6  7  1  0
M  END
$$$$
