S=C=Nc1cccc2c1cccc2
     RDKit          3D

 13 14  0  0  0  0  0  0  0  0999 V2000
    4.4721    2.6501    0.7304 S   0  0  0  0  0  0  0  0  0  0  0  0
    2.9245    2.2650    0.5004 C   0  0  0  0  0  0  0  0  0  0  0  0
    1.7013    1.9609    0.3186 N   0  0  0  0  0  0  0  0  0  0  0  0
    1.2124    0.6124    0.1935 C   0  0  0  0  0  0  0  0  0  0  0  0
    2.0867   -0.4919    0.2669 C   0  0  0  0  0  0  0  0  0  0  0  0
    1.6013   -1.7943    0.1443 C   0  0  0  0  0  0  0  0  0  0  0  0
    0.2406   -2.0233   -0.0532 C   0  0  0  0  0  0  0  0  0  0  0  0
   -0.6519   -0.9458   -0.1304 C   0  0  0  0  0  0  0  0  0  0  0  0
   -0.1692    0.3841   -0.0069 C   0  0  0  0  0  0  0  0  0  0  0  0
   -1.0853    1.4521   -0.0877 C   0  0  0  0  0  0  0  0  0  0  0  0
   -2.4461    1.2043   -0.2861 C   0  0  0  0  0  0  0  0  0  0  0  0
   -2.9128   -0.1053   -0.4065 C   0  0  0  0  0  0  0  0  0  0  0  0
   -2.0221   -1.1776   -0.3294 C   0  0  0  0  0  0  0  0  0  0  0  0
  1  2  2  0
  2  3  2  3
  3  4  1  0
  4  5  2  0
  4  9  1  0
  5  6  1  0
  6  7  2  0
  7  8  1  0
  8 13  1  0
  8  9  2  0
  9 10  1  0
 10 11  2  0
 11 12  1  0
 12 13  2  0
M  END
$$$$
