OC(C(CO)c1ccccc1)=O
     RDKit          3D

 12 12  0  0  1  0  0  0  0  0999 V2000
   -1.8209    1.1764    1.6077 O   0  0  0  0  0  0  0  0  0  0  0  0
   -1.7999   -0.1942    1.3565 C   0  0  0  0  0  0  0  0  0  0  0  0
   -1.1047   -0.7716    0.1462 C   0  0  1  0  0  0  0  0  0  0  0  0
   -1.9168   -0.5722   -1.1519 C   0  0  0  0  0  0  0  0  0  0  0  0
   -2.3208    0.7606   -1.3270 O   0  0  0  0  0  0  0  0  0  0  0  0
    0.3421   -0.3065    0.0546 C   0  0  0  0  0  0  0  0  0  0  0  0
    0.7045    0.9182   -0.5445 C   0  0  0  0  0  0  0  0  0  0  0  0
    2.0444    1.3144   -0.5966 C   0  0  0  0  0  0  0  0  0  0  0  0
    3.0388    0.5012   -0.0507 C   0  0  0  0  0  0  0  0  0  0  0  0
    2.6956   -0.7102    0.5513 C   0  0  0  0  0  0  0  0  0  0  0  0
    1.3578   -1.1119    0.6064 C   0  0  0  0  0  0  0  0  0  0  0  0
   -2.3974   -0.9658    2.1528 O   0  0  0  0  0  0  0  0  0  0  0  0
  1  2  1  0
  3  2  1  1
  2 12  2  0
  3  6  1  0
  3  4  1  0
  4  5  1  0
  6 11  2  0
  6  7  1  0
  7  8  2  0
  8  9  1  0
  9 10  2  0
 10 11  1  0
M  END
$$$$
