c1(c2ccncc2)ccncc1
     RDKit          3D

 12 13  0  0  0  0  0  0  0  0999 V2000
    0.7391   -0.0682   -0.0318 C   0  0  0  0  0  0  0  0  0  0  0  0
   -0.7391    0.0682    0.0318 C   0  0  0  0  0  0  0  0  0  0  0  0
   -1.5689   -0.7410   -0.7638 C   0  0  0  0  0  0  0  0  0  0  0  0
   -2.9562   -0.5964   -0.6877 C   0  0  0  0  0  0  0  0  0  0  0  0
   -3.5019    0.3231    0.1507 N   0  0  0  0  0  0  0  0  0  0  0  0
   -2.7281    1.1209    0.9324 C   0  0  0  0  0  0  0  0  0  0  0  0
   -1.3363    1.0090    0.8888 C   0  0  0  0  0  0  0  0  0  0  0  0
    1.3872   -0.2843   -1.2605 C   0  0  0  0  0  0  0  0  0  0  0  0
    2.7780   -0.4090   -1.2974 C   0  0  0  0  0  0  0  0  0  0  0  0
    3.5019   -0.3231   -0.1507 N   0  0  0  0  0  0  0  0  0  0  0  0
    2.9063   -0.1154    1.0528 C   0  0  0  0  0  0  0  0  0  0  0  0
    1.5180    0.0163    1.1355 C   0  0  0  0  0  0  0  0  0  0  0  0
  1  2  1  0
  1  8  2  0
  1 12  1  0
  2  3  2  0
  2  7  1  0
  3  4  1  0
  4  5  2  0
  5  6  1  0
  6  7  2  0
  8  9  1  0
  9 10  2  0
 10 11  1  0
 11 12  2  0
M  END
$$$$
