
     RDKit          3D

 17 18  0  0  0  0  0  0  0  0999 V2000
    0.7409    2.4352    1.1949 Cl  0  0  0  0  0  0  0  0  0  0  0  0
    1.4798    1.0508    0.3830 C   0  0  0  0  0  0  0  0  0  0  0  0
    2.8756    1.0013    0.2044 C   0  0  0  0  0  0  0  0  0  0  0  0
    3.8851    2.3376    0.7613 Cl  0  0  0  0  0  0  0  0  0  0  0  0
    3.4668   -0.1159   -0.4156 C   0  0  0  0  0  0  0  0  0  0  0  0
    5.2149   -0.1851   -0.6440 Cl  0  0  0  0  0  0  0  0  0  0  0  0
    0.6779   -0.0171   -0.0669 C   0  0  0  0  0  0  0  0  0  0  0  0
    1.2770   -1.1284   -0.6721 C   0  0  0  0  0  0  0  0  0  0  0  0
    2.6609   -1.1813   -0.8499 C   0  0  0  0  0  0  0  0  0  0  0  0
    3.3579   -2.5990   -1.6243 Cl  0  0  0  0  0  0  0  0  0  0  0  0
   -0.7897    0.0026    0.0964 C   0  0  0  0  0  0  0  0  0  0  0  0
   -1.6071    0.8078   -0.7239 C   0  0  0  0  0  0  0  0  0  0  0  0
   -0.9251    1.8080   -2.0022 Cl  0  0  0  0  0  0  0  0  0  0  0  0
   -2.9954    0.8029   -0.5412 C   0  0  0  0  0  0  0  0  0  0  0  0
   -3.5735   -0.0002    0.4454 C   0  0  0  0  0  0  0  0  0  0  0  0
   -2.7677   -0.8066    1.2522 C   0  0  0  0  0  0  0  0  0  0  0  0
   -1.3813   -0.8087    1.0776 C   0  0  0  0  0  0  0  0  0  0  0  0
  1  2  1  0
  2  7  2  0
  2  3  1  0
  3  4  1  0
  3  5  2  0
  5  9  1  0
  5  6  1  0
  7  8  1  0
  7 11  1  0
  8  9  2  0
  9 10  1  0
 11 17  1  0
 11 12  2  0
 12 13  1  0
 12 14  1  0
 14 15  2  0
 15 16  1  0
 16 17  2  0
M  END
$$$$
