Cc(ccc2cc4c3ccc5c4cccc5)c1c2c3CC1
     RDKit          3D

 21 25  0  0  0  0  0  0  0  0999 V2000
    5.1911    0.8606   -0.2377 C   0  0  0  0  0  0  0  0  0  0  0  0
    3.7004    1.0233   -0.1801 C   0  0  0  0  0  0  0  0  0  0  0  0
    3.1308    2.3184   -0.2118 C   0  0  0  0  0  0  0  0  0  0  0  0
    1.7300    2.4934   -0.1586 C   0  0  0  0  0  0  0  0  0  0  0  0
    0.8890    1.3697   -0.0731 C   0  0  0  0  0  0  0  0  0  0  0  0
   -0.5125    1.4406   -0.0153 C   0  0  0  0  0  0  0  0  0  0  0  0
   -1.2980    0.2471    0.0708 C   0  0  0  0  0  0  0  0  0  0  0  0
   -0.6200   -1.0178    0.0965 C   0  0  0  0  0  0  0  0  0  0  0  0
   -1.3461   -2.2102    0.1801 C   0  0  0  0  0  0  0  0  0  0  0  0
   -2.7334   -2.1874    0.2393 C   0  0  0  0  0  0  0  0  0  0  0  0
   -3.4297   -0.9742    0.2166 C   0  0  0  0  0  0  0  0  0  0  0  0
   -2.7261    0.2620    0.1322 C   0  0  0  0  0  0  0  0  0  0  0  0
   -3.4881    1.4569    0.1132 C   0  0  0  0  0  0  0  0  0  0  0  0
   -4.8831    1.4196    0.1754 C   0  0  0  0  0  0  0  0  0  0  0  0
   -5.5529    0.2025    0.2576 C   0  0  0  0  0  0  0  0  0  0  0  0
   -4.8328   -0.9893    0.2783 C   0  0  0  0  0  0  0  0  0  0  0  0
    2.8305   -0.0782   -0.0943 C   0  0  0  0  0  0  0  0  0  0  0  0
    1.4831    0.1181   -0.0443 C   0  0  0  0  0  0  0  0  0  0  0  0
    0.7837   -1.0414    0.0366 C   0  0  0  0  0  0  0  0  0  0  0  0
    1.7307   -2.2057    0.0463 C   0  0  0  0  0  0  0  0  0  0  0  0
    3.1330   -1.5447   -0.0434 C   0  0  0  0  0  0  0  0  0  0  0  0
  1  2  1  0
  2  3  2  0
  2 17  1  0
  3  4  1  0
  4  5  2  0
  5  6  1  0
  5 18  1  0
  6  7  2  0
  7 12  1  0
  7  8  1  0
  8  9  1  0
  8 19  2  0
  9 10  2  0
 10 11  1  0
 11 16  1  0
 11 12  2  0
 12 13  1  0
 13 14  2  0
 14 15  1  0
 15 16  2  0
 17 21  1  0
 17 18  2  0
 18 19  1  0
 19 20  1  0
 20 21  1  0
M  END
$$$$
