Oc1ccc(C(CC)=C(CC)c2ccc(O)cc2)cc1
     RDKit          3D

 20 21  0  0  0  0  0  0  0  0999 V2000
    4.1281    3.0594   -0.4109 O   0  0  0  0  0  0  0  0  0  0  0  0
    3.2278    2.0233   -0.1737 C   0  0  0  0  0  0  0  0  0  0  0  0
    2.9248    1.6255    1.1357 C   0  0  0  0  0  0  0  0  0  0  0  0
    2.0181    0.5857    1.3619 C   0  0  0  0  0  0  0  0  0  0  0  0
    1.4018   -0.0626    0.2802 C   0  0  0  0  0  0  0  0  0  0  0  0
    0.4326   -1.1608    0.5223 C   0  0  0  0  0  0  0  0  0  0  0  0
    0.9921   -2.4267    1.1400 C   0  0  0  0  0  0  0  0  0  0  0  0
    1.5645   -3.3477    0.0657 C   0  0  0  0  0  0  0  0  0  0  0  0
   -0.8614   -1.0519    0.1059 C   0  0  0  0  0  0  0  0  0  0  0  0
   -1.8732   -2.1683    0.2707 C   0  0  0  0  0  0  0  0  0  0  0  0
   -2.5980   -2.0507    1.6088 C   0  0  0  0  0  0  0  0  0  0  0  0
   -1.3787    0.2306   -0.4339 C   0  0  0  0  0  0  0  0  0  0  0  0
   -1.8592    0.2992   -1.7509 C   0  0  0  0  0  0  0  0  0  0  0  0
   -2.3391    1.5083   -2.2633 C   0  0  0  0  0  0  0  0  0  0  0  0
   -2.3485    2.6570   -1.4653 C   0  0  0  0  0  0  0  0  0  0  0  0
   -2.8274    3.8552   -1.9899 O   0  0  0  0  0  0  0  0  0  0  0  0
   -1.8771    2.5919   -0.1470 C   0  0  0  0  0  0  0  0  0  0  0  0
   -1.3975    1.3842    0.3677 C   0  0  0  0  0  0  0  0  0  0  0  0
    1.7152    0.3339   -1.0306 C   0  0  0  0  0  0  0  0  0  0  0  0
    2.6216    1.3742   -1.2541 C   0  0  0  0  0  0  0  0  0  0  0  0
  1  2  1  0
  2 20  2  0
  2  3  1  0
  3  4  2  0
  4  5  1  0
  5 19  2  0
  5  6  1  0
  6  7  1  0
  6  9  2  0
  7  8  1  0
  9 10  1  0
  9 12  1  0
 10 11  1  0
 12 18  1  0
 12 13  2  0
 13 14  1  0
 14 15  2  0
 15 17  1  0
 15 16  1  0
 17 18  2  0
 19 20  1  0
M  END
$$$$
