OC(C(N)CCC(N)=O)=O
     RDKit          3D

 10  9  0  0  1  0  0  0  0  0999 V2000
   -3.0636   -0.1501   -1.9862 O   0  0  0  0  0  0  0  0  0  0  0  0
   -2.3717   -0.9275   -1.0611 C   0  0  0  0  0  0  0  0  0  0  0  0
   -1.4951   -0.2825   -0.0216 C   0  0  1  0  0  0  0  0  0  0  0  0
   -1.6974   -0.9478    1.2696 N   0  0  0  0  0  0  0  0  0  0  0  0
   -0.0203   -0.3298   -0.4788 C   0  0  0  0  0  0  0  0  0  0  0  0
    0.9107    0.4616    0.4556 C   0  0  0  0  0  0  0  0  0  0  0  0
    2.3314    0.5175   -0.0391 C   0  0  0  0  0  0  0  0  0  0  0  0
    3.3109    1.2328    0.7125 N   0  0  0  0  0  0  0  0  0  0  0  0
    2.6719   -0.0610   -1.1068 O   0  0  0  0  0  0  0  0  0  0  0  0
   -2.4506   -2.1830   -1.1321 O   0  0  0  0  0  0  0  0  0  0  0  0
  1  2  1  0
  3  2  1  6
  2 10  2  0
  3  5  1  0
  3  4  1  0
  5  6  1  0
  6  7  1  0
  7  8  1  0
  7  9  2  0
M  END
$$$$
