O=C(CC)N(c2ccccc2)C1(COC)CCN(CCc3cccs3)CC1
     RDKit          3D

 27 29  0  0  0  0  0  0  0  0999 V2000
   -2.4809    2.4463   -1.5612 O   0  0  0  0  0  0  0  0  0  0  0  0
   -2.5702    1.9450   -0.4049 C   0  0  0  0  0  0  0  0  0  0  0  0
   -3.1580    2.7640    0.7183 C   0  0  0  0  0  0  0  0  0  0  0  0
   -4.6837    2.8419    0.6068 C   0  0  0  0  0  0  0  0  0  0  0  0
   -2.1807    0.5708   -0.1806 N   0  0  0  0  0  0  0  0  0  0  0  0
   -3.2471   -0.3182    0.2054 C   0  0  0  0  0  0  0  0  0  0  0  0
   -3.3987   -0.7072    1.5458 C   0  0  0  0  0  0  0  0  0  0  0  0
   -4.4701   -1.5203    1.9227 C   0  0  0  0  0  0  0  0  0  0  0  0
   -5.4053   -1.9335    0.9668 C   0  0  0  0  0  0  0  0  0  0  0  0
   -5.2690   -1.5358   -0.3679 C   0  0  0  0  0  0  0  0  0  0  0  0
   -4.1990   -0.7231   -0.7469 C   0  0  0  0  0  0  0  0  0  0  0  0
   -0.8579    0.0264   -0.6178 C   0  0  0  0  0  0  0  0  0  0  0  0
   -1.0895   -0.7493   -1.9512 C   0  0  0  0  0  0  0  0  0  0  0  0
    0.1181   -1.2026   -2.5233 O   0  0  0  0  0  0  0  0  0  0  0  0
   -0.1572   -2.0011   -3.6541 C   0  0  0  0  0  0  0  0  0  0  0  0
   -0.3272   -0.9187    0.5020 C   0  0  0  0  0  0  0  0  0  0  0  0
    1.1603   -1.2668    0.3838 C   0  0  0  0  0  0  0  0  0  0  0  0
    1.9826   -0.0413    0.3597 N   0  0  0  0  0  0  0  0  0  0  0  0
    3.4210   -0.3977    0.3729 C   0  0  0  0  0  0  0  0  0  0  0  0
    4.2779    0.7837    0.8477 C   0  0  0  0  0  0  0  0  0  0  0  0
    5.7012    0.3651    1.0655 C   0  0  0  0  0  0  0  0  0  0  0  0
    6.4032    0.4556    2.2642 C   0  0  0  0  0  0  0  0  0  0  0  0
    7.7341    0.0339    2.1561 C   0  0  0  0  0  0  0  0  0  0  0  0
    8.0818   -0.3867    0.8748 C   0  0  0  0  0  0  0  0  0  0  0  0
    6.7346   -0.2283   -0.1216 S   0  0  0  0  0  0  0  0  0  0  0  0
    1.6439    0.7550   -0.8365 C   0  0  0  0  0  0  0  0  0  0  0  0
    0.1699    1.1905   -0.8118 C   0  0  0  0  0  0  0  0  0  0  0  0
  1  2  2  0
  2  3  1  0
  2  5  1  0
  3  4  1  0
  5  6  1  0
  5 12  1  0
  6 11  1  0
  6  7  2  0
  7  8  1  0
  8  9  2  0
  9 10  1  0
 10 11  2  0
 12 16  1  0
 12 27  1  0
 12 13  1  0
 13 14  1  0
 14 15  1  0
 16 17  1  0
 17 18  1  0
 18 26  1  0
 18 19  1  0
 19 20  1  0
 20 21  1  0
 21 22  2  0
 21 25  1  0
 22 23  1  0
 23 24  2  0
 24 25  1  0
 26 27  1  0
M  END
$$$$
