CC(C)C(O)CC
     RDKit          3D

  7  6  0  0  1  0  0  0  0  0999 V2000
   -1.2532    1.4983   -0.6788 C   0  0  0  0  0  0  0  0  0  0  0  0
   -0.9740   -0.0127   -0.6109 C   0  0  0  0  0  0  0  0  0  0  0  0
   -2.2722   -0.7529   -0.2501 C   0  0  0  0  0  0  0  0  0  0  0  0
    0.1552   -0.3560    0.4047 C   0  0  1  0  0  0  0  0  0  0  0  0
    0.3026   -1.7513    0.5200 O   0  0  0  0  0  0  0  0  0  0  0  0
    1.5094    0.2904    0.0310 C   0  0  0  0  0  0  0  0  0  0  0  0
    2.6204   -0.1062    1.0027 C   0  0  0  0  0  0  0  0  0  0  0  0
  1  2  1  0
  2  3  1  0
  4  2  1  6
  4  6  1  0
  4  5  1  0
  6  7  1  0
M  END
$$$$
