COc1c(C2=O)c(CO2)ccc1OC
     RDKit          3D

 14 15  0  0  0  0  0  0  0  0999 V2000
    0.9072    2.9548   -0.0643 C   0  0  0  0  0  0  0  0  0  0  0  0
    1.0549    1.6838   -0.6904 O   0  0  0  0  0  0  0  0  0  0  0  0
    0.3386    0.5434   -0.3073 C   0  0  0  0  0  0  0  0  0  0  0  0
   -1.0598    0.5347   -0.1644 C   0  0  0  0  0  0  0  0  0  0  0  0
   -2.0771    1.5246   -0.4530 C   0  0  0  0  0  0  0  0  0  0  0  0
   -1.8892    2.6692   -0.9397 O   0  0  0  0  0  0  0  0  0  0  0  0
   -1.7388   -0.5941    0.2358 C   0  0  0  0  0  0  0  0  0  0  0  0
   -3.2184   -0.3516    0.2649 C   0  0  0  0  0  0  0  0  0  0  0  0
   -3.3339    0.9993   -0.1865 O   0  0  0  0  0  0  0  0  0  0  0  0
   -1.0647   -1.7830    0.5003 C   0  0  0  0  0  0  0  0  0  0  0  0
    0.3290   -1.8153    0.3444 C   0  0  0  0  0  0  0  0  0  0  0  0
    1.0385   -0.6565   -0.0652 C   0  0  0  0  0  0  0  0  0  0  0  0
    2.4322   -0.6580   -0.2312 O   0  0  0  0  0  0  0  0  0  0  0  0
    3.2675   -1.7912   -0.0187 C   0  0  0  0  0  0  0  0  0  0  0  0
  1  2  1  0
  2  3  1  0
  3  4  2  0
  3 12  1  0
  4  7  1  0
  4  5  1  0
  5  6  2  0
  5  9  1  0
  7 10  2  0
  7  8  1  0
  8  9  1  0
 10 11  1  0
 11 12  2  0
 12 13  1  0
 13 14  1  0
M  END
$$$$
