O=C(N)N
     RDKit          3D

  4  3  0  0  0  0  0  0  0  0999 V2000
   -0.0623    1.7641    0.0570 O   0  0  0  0  0  0  0  0  0  0  0  0
   -0.0179    0.5062    0.0163 C   0  0  0  0  0  0  0  0  0  0  0  0
    1.1573   -0.1775    0.4484 N   0  0  0  0  0  0  0  0  0  0  0  0
   -1.1429   -0.2294   -0.4616 N   0  0  0  0  0  0  0  0  0  0  0  0
  1  2  2  0
  2  3  1  0
  2  4  1  0
M  END
$$$$
