CCCCCCCCCCCCCCCC(O)=O
     RDKit          3D

 18 17  0  0  0  0  0  0  0  0999 V2000
   -6.6261    0.5645   -0.2789 C   0  0  0  0  0  0  0  0  0  0  0  0
   -6.3975   -0.8161    0.3351 C   0  0  0  0  0  0  0  0  0  0  0  0
   -5.2358   -0.8419    1.3445 C   0  0  0  0  0  0  0  0  0  0  0  0
   -3.8615   -0.4771    0.7549 C   0  0  0  0  0  0  0  0  0  0  0  0
   -3.4053   -1.4526   -0.3441 C   0  0  0  0  0  0  0  0  0  0  0  0
   -1.9321   -1.2529   -0.7329 C   0  0  0  0  0  0  0  0  0  0  0  0
   -1.6858    0.0932   -1.4364 C   0  0  0  0  0  0  0  0  0  0  0  0
   -0.2958    0.1811   -2.0922 C   0  0  0  0  0  0  0  0  0  0  0  0
    0.8918    0.0164   -1.1262 C   0  0  0  0  0  0  0  0  0  0  0  0
    0.9442    1.1128   -0.0482 C   0  0  0  0  0  0  0  0  0  0  0  0
    2.1862    0.9942    0.8501 C   0  0  0  0  0  0  0  0  0  0  0  0
    3.4766    1.4370    0.1383 C   0  0  0  0  0  0  0  0  0  0  0  0
    4.6738    1.5625    1.0976 C   0  0  0  0  0  0  0  0  0  0  0  0
    5.0702    0.2566    1.8175 C   0  0  0  0  0  0  0  0  0  0  0  0
    5.4315   -0.9050    0.8770 C   0  0  0  0  0  0  0  0  0  0  0  0
    6.5755   -0.5658   -0.0295 C   0  0  0  0  0  0  0  0  0  0  0  0
    6.3832   -0.5380   -1.4072 O   0  0  0  0  0  0  0  0  0  0  0  0
    7.7117   -0.3117    0.4529 O   0  0  0  0  0  0  0  0  0  0  0  0
  1  2  1  0
  2  3  1  0
  3  4  1  0
  4  5  1  0
  5  6  1  0
  6  7  1  0
  7  8  1  0
  8  9  1  0
  9 10  1  0
 10 11  1  0
 11 12  1  0
 12 13  1  0
 13 14  1  0
 14 15  1  0
 15 16  1  0
 16 17  1  0
 16 18  2  0
M  END
$$$$
