O=C(C5)N(C4C2(CC7)C(N7C6)CC3C6=CCOC5C34)c1c2cccc1
     RDKit          3D

 25 31  0  0  1  0  0  0  0  0999 V2000
   -1.3415    3.8209    1.1114 O   0  0  0  0  0  0  0  0  0  0  0  0
   -0.6258    2.8674    0.7072 C   0  0  0  0  0  0  0  0  0  0  0  0
    0.8114    3.1179    0.2119 C   0  0  0  0  0  0  0  0  0  0  0  0
   -1.1502    1.5264    0.6439 N   0  0  0  0  0  0  0  0  0  0  0  0
   -0.4001    0.6237   -0.1659 C   0  0  2  0  0  0  0  0  0  0  0  0
   -1.0163   -0.7855   -0.0770 C   0  0  2  0  0  0  0  0  0  0  0  0
   -0.8618   -1.4984    1.2805 C   0  0  0  0  0  0  0  0  0  0  0  0
    0.2870   -2.4934    1.1528 C   0  0  0  0  0  0  0  0  0  0  0  0
   -0.2329   -1.7297   -1.0769 C   0  0  2  0  0  0  0  0  0  0  0  0
    0.6707   -2.6113   -0.2624 N   0  0  0  0  0  0  0  0  0  0  0  0
    2.1683   -2.4903   -0.4621 C   0  0  0  0  0  0  0  0  0  0  0  0
    0.6401   -0.9309   -2.0719 C   0  0  0  0  0  0  0  0  0  0  0  0
    1.6688   -0.1098   -1.2152 C   0  0  2  0  0  0  0  0  0  0  0  0
    2.6524   -1.0390   -0.6318 C   0  0  0  0  0  0  0  0  0  0  0  0
    3.6913   -0.5142    0.0759 C   0  0  0  0  0  0  0  0  0  0  0  0
    3.9377    0.9956    0.3660 C   0  0  0  0  0  0  0  0  0  0  0  0
    3.0065    1.9638   -0.1589 O   0  0  0  0  0  0  0  0  0  0  0  0
    1.7345    1.8859    0.4817 C   0  0  2  0  0  0  0  0  0  0  0  0
    1.0588    0.5769    0.0611 C   0  0  1  0  0  0  0  0  0  0  0  0
   -2.4725    1.0152    0.3902 C   0  0  0  0  0  0  0  0  0  0  0  0
   -2.4354   -0.2850   -0.1523 C   0  0  0  0  0  0  0  0  0  0  0  0
   -3.6057   -0.9606   -0.4891 C   0  0  0  0  0  0  0  0  0  0  0  0
   -4.8288   -0.2881   -0.3315 C   0  0  0  0  0  0  0  0  0  0  0  0
   -4.8669    1.0267    0.1792 C   0  0  0  0  0  0  0  0  0  0  0  0
   -3.6829    1.6903    0.5448 C   0  0  0  0  0  0  0  0  0  0  0  0
  1  2  2  0
  2  3  1  0
  2  4  1  0
 18  3  1  6
  5  4  1  1
  4 20  1  0
  5 19  1  0
  5  6  1  0
  6  7  1  1
  6 21  1  0
  6  9  1  0
  7  8  1  0
  9 12  1  6
  9 10  1  0
 10  8  1  0
 10 11  1  0
 11 14  1  0
 13 12  1  1
 19 13  1  6
 13 14  1  0
 14 15  2  0
 15 16  1  0
 16 17  1  0
 17 18  1  0
 18 19  1  0
 20 25  1  0
 20 21  2  0
 21 22  1  0
 22 23  2  0
 23 24  1  0
 24 25  2  0
M  END
$$$$
