Oc1c(c2c(cc1)CC3(C45))OC(C24CCN3C)(C(C=C5)O)
     RDKit          3D

 21 25  0  0  1  0  0  0  0  0999 V2000
    4.6804   -0.2466    0.9798 O   0  0  0  0  0  0  0  0  0  0  0  0
    3.4001   -0.7416    0.7455 C   0  0  0  0  0  0  0  0  0  0  0  0
    2.2853    0.1006    0.7196 C   0  0  0  0  0  0  0  0  0  0  0  0
    1.0298   -0.4045    0.5496 C   0  0  0  0  0  0  0  0  0  0  0  0
    0.8235   -1.7093    0.0913 C   0  0  0  0  0  0  0  0  0  0  0  0
    1.9225   -2.5896    0.1211 C   0  0  0  0  0  0  0  0  0  0  0  0
    3.2006   -2.1127    0.4889 C   0  0  0  0  0  0  0  0  0  0  0  0
   -0.4611   -2.0522   -0.6607 C   0  0  0  0  0  0  0  0  0  0  0  0
   -1.4153   -0.8172   -0.9336 C   0  0  2  0  0  0  0  0  0  0  0  0
   -0.5854    0.4893   -0.9844 C   0  0  2  0  0  0  0  0  0  0  0  0
    2.2785    1.4868    0.7078 O   0  0  0  0  0  0  0  0  0  0  0  0
    0.9447    1.9786    0.5135 C   0  0  2  0  0  0  0  0  0  0  0  0
    0.0521    0.6915    0.4042 C   0  0  2  0  0  0  0  0  0  0  0  0
   -1.0088    0.6674    1.5402 C   0  0  0  0  0  0  0  0  0  0  0  0
   -1.9606   -0.5315    1.4483 C   0  0  0  0  0  0  0  0  0  0  0  0
   -2.4899   -0.6681    0.0790 N   0  0  0  0  0  0  0  0  0  0  0  0
   -3.5067   -1.7293    0.0003 C   0  0  0  0  0  0  0  0  0  0  0  0
    0.8198    2.9074   -0.7275 C   0  0  2  0  0  0  0  0  0  0  0  0
   -0.6157    2.9121   -1.2468 C   0  0  0  0  0  0  0  0  0  0  0  0
   -1.2956    1.7554   -1.3741 C   0  0  0  0  0  0  0  0  0  0  0  0
    1.6881    2.4702   -1.7409 O   0  0  0  0  0  0  0  0  0  0  0  0
  1  2  1  0
  2  7  2  0
  2  3  1  0
  3  4  2  0
  3 11  1  0
  4  5  1  0
  5  8  1  0
  5  6  2  0
  6  7  1  0
  9  8  1  1
  9 10  1  0
  9 16  1  0
 10 20  1  1
 10 13  1  0
 12 11  1  6
 12 13  1  0
 12 18  1  0
 13  4  1  0
 13 14  1  1
 14 15  1  0
 15 16  1  0
 16 17  1  0
 18 19  1  0
 18 21  1  6
 19 20  2  0
M  END
$$$$
