O=C(C(CC)(CC)C(N1)=O)NC1=O
     RDKit          3D

 13 13  0  0  0  0  0  0  0  0999 V2000
    0.2341   -1.2731    1.8242 O   0  0  0  0  0  0  0  0  0  0  0  0
    0.6916   -0.4267    1.0083 C   0  0  0  0  0  0  0  0  0  0  0  0
   -0.1300   -0.0332   -0.2189 C   0  0  0  0  0  0  0  0  0  0  0  0
   -1.6291    0.1428    0.1819 C   0  0  0  0  0  0  0  0  0  0  0  0
   -1.8747    1.2876    1.1734 C   0  0  0  0  0  0  0  0  0  0  0  0
    0.0208   -1.1250   -1.3210 C   0  0  0  0  0  0  0  0  0  0  0  0
   -0.4348   -2.5369   -0.9326 C   0  0  0  0  0  0  0  0  0  0  0  0
    0.3763    1.2690   -0.8367 C   0  0  0  0  0  0  0  0  0  0  0  0
    1.6383    1.8386   -0.4771 N   0  0  0  0  0  0  0  0  0  0  0  0
   -0.3071    1.8352   -1.7337 O   0  0  0  0  0  0  0  0  0  0  0  0
    1.9956    0.1103    1.2423 N   0  0  0  0  0  0  0  0  0  0  0  0
    2.4668    1.2371    0.5120 C   0  0  0  0  0  0  0  0  0  0  0  0
    3.6078    1.7128    0.7532 O   0  0  0  0  0  0  0  0  0  0  0  0
  1  2  2  0
  2  3  1  0
  2 11  1  0
  3  4  1  0
  3  6  1  0
  3  8  1  0
  4  5  1  0
  6  7  1  0
  8  9  1  0
  8 10  2  0
  9 12  1  0
 11 12  1  0
 12 13  2  0
M  END
$$$$
