O=C1CCC2(C)C(CCC3C2CCC4(C)C3CCC4OC(CC)=O)=C1
     RDKit          3D

 25 28  0  0  1  0  0  0  0  0999 V2000
   -6.7750   -0.7141   -0.3583 O   0  0  0  0  0  0  0  0  0  0  0  0
   -5.5807   -0.3167   -0.3138 C   0  0  0  0  0  0  0  0  0  0  0  0
   -5.1928    0.7441    0.6737 C   0  0  0  0  0  0  0  0  0  0  0  0
   -3.6754    0.7647    0.9114 C   0  0  0  0  0  0  0  0  0  0  0  0
   -2.8573    0.7304   -0.4154 C   0  0  2  0  0  0  0  0  0  0  0  0
   -3.0924    2.0403   -1.2074 C   0  0  0  0  0  0  0  0  0  0  0  0
   -3.3264   -0.4462   -1.2881 C   0  0  0  0  0  0  0  0  0  0  0  0
   -2.3011   -1.1751   -2.1427 C   0  0  0  0  0  0  0  0  0  0  0  0
   -1.1055   -1.6974   -1.3032 C   0  0  0  0  0  0  0  0  0  0  0  0
   -0.9719   -0.9569    0.0469 C   0  0  2  0  0  0  0  0  0  0  0  0
   -1.3178    0.5543   -0.1369 C   0  0  2  0  0  0  0  0  0  0  0  0
   -0.7157    1.4197    1.0023 C   0  0  0  0  0  0  0  0  0  0  0  0
    0.8406    1.3288    1.0577 C   0  0  0  0  0  0  0  0  0  0  0  0
    1.4182   -0.0536    0.5961 C   0  0  2  0  0  0  0  0  0  0  0  0
    1.9068    0.0306   -0.8795 C   0  0  0  0  0  0  0  0  0  0  0  0
    0.3603   -1.1468    0.8164 C   0  0  2  0  0  0  0  0  0  0  0  0
    1.1066   -2.4762    0.7604 C   0  0  0  0  0  0  0  0  0  0  0  0
    2.4845   -2.1555    1.3709 C   0  0  0  0  0  0  0  0  0  0  0  0
    2.5454   -0.6121    1.5048 C   0  0  1  0  0  0  0  0  0  0  0  0
    3.8405   -0.0084    1.3365 O   0  0  0  0  0  0  0  0  0  0  0  0
    4.8112   -0.2654    0.3543 C   0  0  0  0  0  0  0  0  0  0  0  0
    6.0465    0.5755    0.3283 C   0  0  0  0  0  0  0  0  0  0  0  0
    5.7967    1.8626   -0.4486 C   0  0  0  0  0  0  0  0  0  0  0  0
    4.6489   -1.1475   -0.5298 O   0  0  0  0  0  0  0  0  0  0  0  0
   -4.5956   -0.8842   -1.2484 C   0  0  0  0  0  0  0  0  0  0  0  0
  1  2  2  0
  2  3  1  0
  2 25  1  0
  3  4  1  0
  4  5  1  0
  5  6  1  6
  5 11  1  0
  5  7  1  0
  7  8  1  0
  7 25  2  0
  8  9  1  0
 10  9  1  6
 10 11  1  0
 10 16  1  0
 11 12  1  1
 12 13  1  0
 13 14  1  0
 14 15  1  6
 14 16  1  0
 14 19  1  0
 16 17  1  6
 17 18  1  0
 18 19  1  0
 19 20  1  6
 20 21  1  0
 21 22  1  0
 21 24  2  0
 22 23  1  0
M  END
$$$$
