Cc1c(O)c(C)ccc1
     RDKit          3D

  9  9  0  0  0  0  0  0  0  0999 V2000
    2.5045   -0.2774    0.6162 C   0  0  0  0  0  0  0  0  0  0  0  0
    1.1380    0.2159    0.2263 C   0  0  0  0  0  0  0  0  0  0  0  0
    0.0418   -0.6726    0.1150 C   0  0  0  0  0  0  0  0  0  0  0  0
    0.1855   -2.0416    0.3626 O   0  0  0  0  0  0  0  0  0  0  0  0
   -1.2259   -0.1784   -0.2523 C   0  0  0  0  0  0  0  0  0  0  0  0
   -2.3963   -1.1139   -0.3732 C   0  0  0  0  0  0  0  0  0  0  0  0
   -1.3928    1.1917   -0.5054 C   0  0  0  0  0  0  0  0  0  0  0  0
   -0.3116    2.0652   -0.3952 C   0  0  0  0  0  0  0  0  0  0  0  0
    0.9458    1.5831   -0.0320 C   0  0  0  0  0  0  0  0  0  0  0  0
  1  2  1  0
  2  9  2  0
  2  3  1  0
  3  5  2  0
  3  4  1  0
  5  6  1  0
  5  7  1  0
  7  8  2  0
  8  9  1  0
M  END
$$$$
