Cc1c(N(C(C(OC)=O)C)C(COC)=O)c(C)ccc1
     RDKit          3D

 20 20  0  0  1  0  0  0  0  0999 V2000
   -0.9009   -2.0704    1.4786 C   0  0  0  0  0  0  0  0  0  0  0  0
   -0.9891   -1.6009    0.0505 C   0  0  0  0  0  0  0  0  0  0  0  0
   -0.4420   -0.3654   -0.3771 C   0  0  0  0  0  0  0  0  0  0  0  0
    0.2545    0.4819    0.5630 N   0  0  0  0  0  0  0  0  0  0  0  0
    1.6997    0.2957    0.8395 C   0  0  1  0  0  0  0  0  0  0  0  0
    2.2178   -1.0466    0.3818 C   0  0  0  0  0  0  0  0  0  0  0  0
    2.5243   -2.0227    1.3340 O   0  0  0  0  0  0  0  0  0  0  0  0
    2.9572   -3.3293    0.9771 C   0  0  0  0  0  0  0  0  0  0  0  0
    2.3567   -1.2890   -0.8495 O   0  0  0  0  0  0  0  0  0  0  0  0
    2.5285    1.4277    0.2224 C   0  0  0  0  0  0  0  0  0  0  0  0
   -0.4936    1.4687    1.3141 C   0  0  0  0  0  0  0  0  0  0  0  0
   -1.9716    1.6825    1.0906 C   0  0  0  0  0  0  0  0  0  0  0  0
   -2.3692    2.9726    1.5160 O   0  0  0  0  0  0  0  0  0  0  0  0
   -2.1748    3.9078    0.4766 C   0  0  0  0  0  0  0  0  0  0  0  0
    0.0782    2.1299    2.2242 O   0  0  0  0  0  0  0  0  0  0  0  0
   -0.5998    0.0383   -1.7260 C   0  0  0  0  0  0  0  0  0  0  0  0
   -0.0576    1.3454   -2.2363 C   0  0  0  0  0  0  0  0  0  0  0  0
   -1.2445   -0.8165   -2.6324 C   0  0  0  0  0  0  0  0  0  0  0  0
   -1.7619   -2.0389   -2.2089 C   0  0  0  0  0  0  0  0  0  0  0  0
   -1.6412   -2.4265   -0.8761 C   0  0  0  0  0  0  0  0  0  0  0  0
  1  2  1  0
  2 20  2  0
  2  3  1  0
  3 16  2  0
  3  4  1  0
  5  4  1  6
  4 11  1  0
  5 10  1  0
  5  6  1  0
  6  9  2  0
  6  7  1  0
  7  8  1  0
 11 12  1  0
 11 15  2  0
 12 13  1  0
 13 14  1  0
 16 17  1  0
 16 18  1  0
 18 19  2  0
 19 20  1  0
M  END
$$$$
