Nc1c(CC)cccc1CC
     RDKit          3D

 11 11  0  0  0  0  0  0  0  0999 V2000
   -0.1184   -1.7079    0.5106 N   0  0  0  0  0  0  0  0  0  0  0  0
   -0.0230   -0.3316    0.0991 C   0  0  0  0  0  0  0  0  0  0  0  0
    0.9581    0.0699   -0.8491 C   0  0  0  0  0  0  0  0  0  0  0  0
    1.9389   -0.9035   -1.4641 C   0  0  0  0  0  0  0  0  0  0  0  0
    3.1653   -1.0793   -0.5729 C   0  0  0  0  0  0  0  0  0  0  0  0
    1.0465    1.4202   -1.2244 C   0  0  0  0  0  0  0  0  0  0  0  0
    0.1638    2.3620   -0.7061 C   0  0  0  0  0  0  0  0  0  0  0  0
   -0.8109    1.9775    0.2087 C   0  0  0  0  0  0  0  0  0  0  0  0
   -0.9087    0.6433    0.6359 C   0  0  0  0  0  0  0  0  0  0  0  0
   -1.9809    0.2979    1.6452 C   0  0  0  0  0  0  0  0  0  0  0  0
   -3.2526   -0.1792    0.9492 C   0  0  0  0  0  0  0  0  0  0  0  0
  1  2  1  0
  2  9  2  0
  2  3  1  0
  3  4  1  0
  3  6  2  0
  4  5  1  0
  6  7  1  0
  7  8  2  0
  8  9  1  0
  9 10  1  0
 10 11  1  0
M  END
$$$$
