O=C1CCC2(C)C(CCC3C2CCC4(C)C3CCC4(C)O)=C1
     RDKit          3D

 22 25  0  0  1  0  0  0  0  0999 V2000
    5.6827   -1.3945    1.8463 O   0  0  0  0  0  0  0  0  0  0  0  0
    4.6546   -1.0106    1.2285 C   0  0  0  0  0  0  0  0  0  0  0  0
    4.3407   -1.5964   -0.1166 C   0  0  0  0  0  0  0  0  0  0  0  0
    2.8673   -1.3818   -0.4941 C   0  0  0  0  0  0  0  0  0  0  0  0
    2.3915    0.0842   -0.2570 C   0  0  2  0  0  0  0  0  0  0  0  0
    3.1312    1.0364   -1.2290 C   0  0  0  0  0  0  0  0  0  0  0  0
    2.7266    0.5153    1.1803 C   0  0  0  0  0  0  0  0  0  0  0  0
    1.7706    1.4515    1.9011 C   0  0  0  0  0  0  0  0  0  0  0  0
    0.3254    0.8908    1.9387 C   0  0  0  0  0  0  0  0  0  0  0  0
    0.0770   -0.1683    0.8386 C   0  0  2  0  0  0  0  0  0  0  0  0
    0.8369    0.2258   -0.4658 C   0  0  2  0  0  0  0  0  0  0  0  0
    0.2408   -0.4908   -1.7036 C   0  0  0  0  0  0  0  0  0  0  0  0
   -1.2475   -0.1026   -1.9470 C   0  0  0  0  0  0  0  0  0  0  0  0
   -2.0666    0.1767   -0.6330 C   0  0  2  0  0  0  0  0  0  0  0  0
   -2.1636    1.7211   -0.3977 C   0  0  0  0  0  0  0  0  0  0  0  0
   -1.4020   -0.5467    0.5515 C   0  0  2  0  0  0  0  0  0  0  0  0
   -2.4269   -0.5318    1.6794 C   0  0  0  0  0  0  0  0  0  0  0  0
   -3.7872   -0.5538    0.9577 C   0  0  0  0  0  0  0  0  0  0  0  0
   -3.5006   -0.4612   -0.5674 C   0  0  1  0  0  0  0  0  0  0  0  0
   -4.6092    0.3496   -1.2876 C   0  0  0  0  0  0  0  0  0  0  0  0
   -3.4769   -1.7863   -1.0640 O   0  0  0  0  0  0  0  0  0  0  0  0
    3.7955    0.0229    1.8281 C   0  0  0  0  0  0  0  0  0  0  0  0
  1  2  2  0
  2  3  1  0
  2 22  1  0
  3  4  1  0
  4  5  1  0
  5  6  1  6
  5 11  1  0
  5  7  1  0
  7  8  1  0
  7 22  2  0
  8  9  1  0
 10  9  1  1
 10 11  1  0
 10 16  1  0
 11 12  1  6
 12 13  1  0
 13 14  1  0
 14 15  1  1
 14 16  1  0
 14 19  1  0
 16 17  1  1
 17 18  1  0
 18 19  1  0
 19 20  1  6
 19 21  1  0
M  END
$$$$
