Clc4cc1c(cc4)Sc3c(cccc3)N1CCCN2CCN(CCO)CC2
     RDKit          3D

 27 30  0  0  0  0  0  0  0  0999 V2000
   -4.5113   -3.3317    3.7264 Cl  0  0  0  0  0  0  0  0  0  0  0  0
   -4.2708   -1.8464    2.8247 C   0  0  0  0  0  0  0  0  0  0  0  0
   -3.4029   -1.8278    1.7268 C   0  0  0  0  0  0  0  0  0  0  0  0
   -3.2099   -0.6411    0.9979 C   0  0  0  0  0  0  0  0  0  0  0  0
   -3.8922    0.5257    1.3905 C   0  0  0  0  0  0  0  0  0  0  0  0
   -4.7765    0.4968    2.4730 C   0  0  0  0  0  0  0  0  0  0  0  0
   -4.9631   -0.6873    3.1909 C   0  0  0  0  0  0  0  0  0  0  0  0
   -3.5473    2.0732    0.5464 S   0  0  0  0  0  0  0  0  0  0  0  0
   -3.6521    1.3325   -1.0860 C   0  0  0  0  0  0  0  0  0  0  0  0
   -2.9844    0.1191   -1.3367 C   0  0  0  0  0  0  0  0  0  0  0  0
   -3.0030   -0.4190   -2.6354 C   0  0  0  0  0  0  0  0  0  0  0  0
   -3.6762    0.2486   -3.6637 C   0  0  0  0  0  0  0  0  0  0  0  0
   -4.3512    1.4440   -3.4013 C   0  0  0  0  0  0  0  0  0  0  0  0
   -4.3440    1.9841   -2.1125 C   0  0  0  0  0  0  0  0  0  0  0  0
   -2.4428   -0.6296   -0.2271 N   0  0  0  0  0  0  0  0  0  0  0  0
   -1.1932   -1.3962   -0.3687 C   0  0  0  0  0  0  0  0  0  0  0  0
   -0.1866   -1.0503    0.7403 C   0  0  0  0  0  0  0  0  0  0  0  0
    0.2243    0.4448    0.7309 C   0  0  0  0  0  0  0  0  0  0  0  0
    1.6481    0.6700    0.4071 N   0  0  0  0  0  0  0  0  0  0  0  0
    1.9811    0.3579   -0.9951 C   0  0  0  0  0  0  0  0  0  0  0  0
    3.4797    0.5534   -1.2251 C   0  0  0  0  0  0  0  0  0  0  0  0
    4.2764   -0.3719   -0.3901 N   0  0  0  0  0  0  0  0  0  0  0  0
    5.6812    0.0532   -0.2046 C   0  0  0  0  0  0  0  0  0  0  0  0
    5.8653    1.1738    0.8359 C   0  0  0  0  0  0  0  0  0  0  0  0
    7.1971    1.6111    0.8368 O   0  0  0  0  0  0  0  0  0  0  0  0
    3.6066   -0.8731    0.8327 C   0  0  0  0  0  0  0  0  0  0  0  0
    2.5962    0.1353    1.4167 C   0  0  0  0  0  0  0  0  0  0  0  0
  1  2  1  0
  2  7  2  0
  2  3  1  0
  3  4  2  0
  4  5  1  0
  4 15  1  0
  5  6  2  0
  5  8  1  0
  6  7  1  0
  8  9  1  0
  9 14  2  0
  9 10  1  0
 10 11  2  0
 10 15  1  0
 11 12  1  0
 12 13  2  0
 13 14  1  0
 15 16  1  0
 16 17  1  0
 17 18  1  0
 18 19  1  0
 19 27  1  0
 19 20  1  0
 20 21  1  0
 21 22  1  0
 22 26  1  0
 22 23  1  0
 23 24  1  0
 24 25  1  0
 26 27  1  0
M  END
$$$$
