Oc(cc2)cc1c2nccc1
     RDKit          3D

 11 12  0  0  0  0  0  0  0  0999 V2000
    3.4511   -0.5893   -0.4029 O   0  0  0  0  0  0  0  0  0  0  0  0
    2.1582   -0.1027   -0.2231 C   0  0  0  0  0  0  0  0  0  0  0  0
    1.9442    1.2796   -0.1641 C   0  0  0  0  0  0  0  0  0  0  0  0
    0.6539    1.7880    0.0158 C   0  0  0  0  0  0  0  0  0  0  0  0
    1.0741   -0.9847   -0.1015 C   0  0  0  0  0  0  0  0  0  0  0  0
   -0.2229   -0.4818    0.0792 C   0  0  0  0  0  0  0  0  0  0  0  0
   -0.4322    0.9147    0.1379 C   0  0  0  0  0  0  0  0  0  0  0  0
   -1.6888    1.4061    0.3130 N   0  0  0  0  0  0  0  0  0  0  0  0
   -2.7661    0.5852    0.4351 C   0  0  0  0  0  0  0  0  0  0  0  0
   -2.6025   -0.8015    0.3826 C   0  0  0  0  0  0  0  0  0  0  0  0
   -1.3253   -1.3374    0.2038 C   0  0  0  0  0  0  0  0  0  0  0  0
  1  2  1  0
  2  3  2  0
  2  5  1  0
  3  4  1  0
  4  7  2  0
  5  6  2  0
  6  7  1  0
  6 11  1  0
  7  8  1  0
  8  9  2  0
  9 10  1  0
 10 11  2  0
M  END
$$$$
