Cc2cc1ccc(C)cc1cc2
     RDKit          3D

 12 13  0  0  0  0  0  0  0  0999 V2000
    3.9545    0.0899    0.6339 C   0  0  0  0  0  0  0  0  0  0  0  0
    2.5294    0.0012    0.1730 C   0  0  0  0  0  0  0  0  0  0  0  0
    1.4891    0.2241    1.0874 C   0  0  0  0  0  0  0  0  0  0  0  0
    0.1507    0.1448    0.6726 C   0  0  0  0  0  0  0  0  0  0  0  0
   -0.8936    0.3717    1.5808 C   0  0  0  0  0  0  0  0  0  0  0  0
   -2.2232    0.2911    1.1583 C   0  0  0  0  0  0  0  0  0  0  0  0
   -2.5280   -0.0302   -0.1729 C   0  0  0  0  0  0  0  0  0  0  0  0
   -3.9564   -0.0766   -0.6290 C   0  0  0  0  0  0  0  0  0  0  0  0
   -1.4874   -0.2409   -1.0908 C   0  0  0  0  0  0  0  0  0  0  0  0
   -0.1490   -0.1621   -0.6759 C   0  0  0  0  0  0  0  0  0  0  0  0
    0.8955   -0.3824   -1.5855 C   0  0  0  0  0  0  0  0  0  0  0  0
    2.2253   -0.3016   -1.1634 C   0  0  0  0  0  0  0  0  0  0  0  0
  1  2  1  0
  2 12  2  0
  2  3  1  0
  3  4  2  0
  4  5  1  0
  4 10  1  0
  5  6  2  0
  6  7  1  0
  7  8  1  0
  7  9  2  0
  9 10  1  0
 10 11  2  0
 11 12  1  0
M  END
$$$$
