
     RDKit          3D

 22 23  0  0  0  0  0  0  0  0999 V2000
    1.5823   -2.0458   -0.0352 O   0  0  0  0  0  0  0  0  0  0  0  0
    1.1612   -0.9138    0.3328 C   0  0  0  0  0  0  0  0  0  0  0  0
    2.0053    0.2031    0.2717 O   0  0  0  0  0  0  0  0  0  0  0  0
    3.2755    0.1984   -0.3781 C   0  0  0  0  0  0  0  0  0  0  0  0
    3.0879    0.1913   -1.8979 C   0  0  0  0  0  0  0  0  0  0  0  0
    4.0564    1.4361    0.0581 C   0  0  0  0  0  0  0  0  0  0  0  0
   -0.2318   -0.7863    0.9298 C   0  0  0  0  0  0  0  0  0  0  0  0
   -1.2922   -1.5416    0.1172 C   0  0  0  0  0  0  0  0  0  0  0  0
   -1.1762   -1.7172   -1.2797 C   0  0  0  0  0  0  0  0  0  0  0  0
   -2.1836   -2.3613   -2.0034 C   0  0  0  0  0  0  0  0  0  0  0  0
   -3.3308   -2.8215   -1.3534 C   0  0  0  0  0  0  0  0  0  0  0  0
   -4.5950   -3.6252   -2.2659 Cl  0  0  0  0  0  0  0  0  0  0  0  0
   -3.4761   -2.6277    0.0220 C   0  0  0  0  0  0  0  0  0  0  0  0
   -2.4718   -1.9843    0.7505 C   0  0  0  0  0  0  0  0  0  0  0  0
   -0.1696   -1.3156    2.2365 O   0  0  0  0  0  0  0  0  0  0  0  0
   -0.6531    0.6843    0.9874 C   0  0  0  0  0  0  0  0  0  0  0  0
   -0.6709    1.4630   -0.1901 C   0  0  0  0  0  0  0  0  0  0  0  0
   -1.0678    2.8021   -0.1563 C   0  0  0  0  0  0  0  0  0  0  0  0
   -1.4624    3.3863    1.0489 C   0  0  0  0  0  0  0  0  0  0  0  0
   -1.9613    5.0674    1.0885 Cl  0  0  0  0  0  0  0  0  0  0  0  0
   -1.4620    2.6287    2.2223 C   0  0  0  0  0  0  0  0  0  0  0  0
   -1.0645    1.2886    2.1952 C   0  0  0  0  0  0  0  0  0  0  0  0
  1  2  2  0
  2  7  1  0
  2  3  1  0
  3  4  1  0
  4  6  1  0
  4  5  1  0
  7  8  1  0
  7 16  1  0
  7 15  1  0
  8 14  1  0
  8  9  2  0
  9 10  1  0
 10 11  2  0
 11 13  1  0
 11 12  1  0
 13 14  2  0
 16 22  1  0
 16 17  2  0
 17 18  1  0
 18 19  2  0
 19 21  1  0
 19 20  1  0
 21 22  2  0
M  END
$$$$
