CC(CC1)CCC1O
     RDKit          3D

  8  8  0  0  0  0  0  0  0  0999 V2000
    2.6067    0.0709    0.2480 C   0  0  0  0  0  0  0  0  0  0  0  0
    1.1701    0.0148   -0.2819 C   0  0  1  0  0  0  0  0  0  0  0  0
    0.4329   -1.2148    0.2826 C   0  0  0  0  0  0  0  0  0  0  0  0
   -1.0164   -1.2656   -0.2174 C   0  0  0  0  0  0  0  0  0  0  0  0
    0.4118    1.3083    0.0730 C   0  0  0  0  0  0  0  0  0  0  0  0
   -1.0374    1.2515   -0.4271 C   0  0  0  0  0  0  0  0  0  0  0  0
   -1.7713    0.0270    0.1389 C   0  0  1  0  0  0  0  0  0  0  0  0
   -3.0687   -0.0158   -0.3938 O   0  0  0  0  0  0  0  0  0  0  0  0
  2  1  1  1
  2  5  1  0
  2  3  1  0
  3  4  1  0
  4  7  1  0
  5  6  1  0
  6  7  1  0
  7  8  1  6
M  END
$$$$
