
     RDKit          3D

 11 12  0  0  0  0  0  0  0  0999 V2000
   -2.4143    0.7253   -0.0280 C   0  0  0  0  0  0  0  0  0  0  0  0
   -2.4353   -0.6711   -0.0891 C   0  0  0  0  0  0  0  0  0  0  0  0
   -1.2384   -1.3933   -0.0909 C   0  0  0  0  0  0  0  0  0  0  0  0
   -0.0106   -0.7170   -0.0314 C   0  0  0  0  0  0  0  0  0  0  0  0
    1.2012   -1.4174   -0.0319 C   0  0  0  0  0  0  0  0  0  0  0  0
    2.4068   -0.7182    0.0281 C   0  0  0  0  0  0  0  0  0  0  0  0
    2.3928    0.6787    0.0884 C   0  0  0  0  0  0  0  0  0  0  0  0
    3.4799    1.3133    0.1427 O   0  0  0  0  0  0  0  0  0  0  0  0
    1.2087    1.3542    0.0885 N   0  0  0  0  0  0  0  0  0  0  0  0
    0.0136    0.6963    0.0305 C   0  0  0  0  0  0  0  0  0  0  0  0
   -1.1961    1.4089    0.0316 C   0  0  0  0  0  0  0  0  0  0  0  0
  1 11  2  0
  1  2  1  0
  2  3  2  0
  3  4  1  0
  4 10  2  0
  4  5  1  0
  5  6  2  0
  6  7  1  0
  7  9  1  0
  7  8  2  0
  9 10  1  0
 10 11  1  0
M  END
$$$$
