O=C(c(cc1)ccc1N)OCCN(CC)CC
     RDKit          3D

 17 17  0  0  0  0  0  0  0  0999 V2000
    0.8338    1.3549   -0.8437 O   0  0  0  0  0  0  0  0  0  0  0  0
    1.2895    0.2192   -0.5351 C   0  0  0  0  0  0  0  0  0  0  0  0
    2.7495    0.0145   -0.4122 C   0  0  0  0  0  0  0  0  0  0  0  0
    3.6453    1.0760   -0.6362 C   0  0  0  0  0  0  0  0  0  0  0  0
    5.0241    0.8765   -0.5176 C   0  0  0  0  0  0  0  0  0  0  0  0
    3.2624   -1.2483   -0.0671 C   0  0  0  0  0  0  0  0  0  0  0  0
    4.6417   -1.4450    0.0509 C   0  0  0  0  0  0  0  0  0  0  0  0
    5.5287   -0.3842   -0.1737 C   0  0  0  0  0  0  0  0  0  0  0  0
    6.9391   -0.5869   -0.0526 N   0  0  0  0  0  0  0  0  0  0  0  0
    0.4151   -0.8527   -0.3137 O   0  0  0  0  0  0  0  0  0  0  0  0
   -1.0055   -0.7339   -0.3589 C   0  0  0  0  0  0  0  0  0  0  0  0
   -1.5297   -0.0756    0.9349 C   0  0  0  0  0  0  0  0  0  0  0  0
   -2.9779    0.2456    0.9218 N   0  0  0  0  0  0  0  0  0  0  0  0
   -3.3023    1.6377    0.5274 C   0  0  0  0  0  0  0  0  0  0  0  0
   -2.9485    1.9840   -0.9211 C   0  0  0  0  0  0  0  0  0  0  0  0
   -3.8511   -0.8085    0.3603 C   0  0  0  0  0  0  0  0  0  0  0  0
   -5.2732   -0.7190    0.9126 C   0  0  0  0  0  0  0  0  0  0  0  0
  1  2  2  0
  2  3  1  0
  2 10  1  0
  3  4  2  0
  3  6  1  0
  4  5  1  0
  5  8  2  0
  6  7  2  0
  7  8  1  0
  8  9  1  0
 10 11  1  0
 11 12  1  0
 12 13  1  0
 13 14  1  0
 13 16  1  0
 14 15  1  0
 16 17  1  0
M  END
$$$$
