CC(C)(O)CCC
     RDKit          3D

  7  6  0  0  0  0  0  0  0  0999 V2000
   -1.4513    1.1600    0.5181 C   0  0  0  0  0  0  0  0  0  0  0  0
   -0.9635   -0.2786    0.2416 C   0  0  0  0  0  0  0  0  0  0  0  0
   -1.9957   -1.0044   -0.6446 C   0  0  0  0  0  0  0  0  0  0  0  0
   -0.8193   -0.9788    1.4554 O   0  0  0  0  0  0  0  0  0  0  0  0
    0.4014   -0.2691   -0.4941 C   0  0  0  0  0  0  0  0  0  0  0  0
    1.5445    0.3549    0.3262 C   0  0  0  0  0  0  0  0  0  0  0  0
    2.8814    0.2080   -0.3953 C   0  0  0  0  0  0  0  0  0  0  0  0
  1  2  1  0
  2  3  1  0
  2  5  1  0
  2  4  1  0
  5  6  1  0
  6  7  1  0
M  END
$$$$
