IC=CI
     RDKit          3D

  4  3  0  0  0  0  0  0  0  0999 V2000
   -1.7511    1.5520    0.7332 I   0  0  0  0  0  0  0  0  0  0  0  0
   -0.6751   -0.2419    0.3946 C   0  0  0  0  0  0  0  0  0  0  0  0
    0.6464   -0.2942    0.1944 C   0  0  0  0  0  0  0  0  0  0  0  0
    1.9095    1.4072    0.1785 I   0  0  0  0  0  0  0  0  0  0  0  0
  1  2  1  0
  2  3  2  0
  3  4  1  0
M  END
$$$$
