CC1=CCCCC1
     RDKit          3D

  7  7  0  0  0  0  0  0  0  0999 V2000
    2.4576    0.5287   -0.0379 C   0  0  0  0  0  0  0  0  0  0  0  0
    0.9767    0.2655    0.0191 C   0  0  0  0  0  0  0  0  0  0  0  0
    0.1231    1.2538    0.3671 C   0  0  0  0  0  0  0  0  0  0  0  0
   -1.3650    1.0413    0.5027 C   0  0  0  0  0  0  0  0  0  0  0  0
   -1.8573   -0.1852   -0.2712 C   0  0  0  0  0  0  0  0  0  0  0  0
   -0.9539   -1.3842    0.0131 C   0  0  0  0  0  0  0  0  0  0  0  0
    0.4783   -1.0884   -0.4447 C   0  0  0  0  0  0  0  0  0  0  0  0
  1  2  1  0
  2  7  1  0
  2  3  2  0
  3  4  1  0
  4  5  1  0
  5  6  1  0
  6  7  1  0
M  END
$$$$
