O=C1CC(C)CCC1
     RDKit          3D

  8  8  0  0  1  0  0  0  0  0999 V2000
    1.6125    2.4600    0.4789 O   0  0  0  0  0  0  0  0  0  0  0  0
    1.1409    1.4030    0.0885 C   0  0  0  0  0  0  0  0  0  0  0  0
   -0.3155    1.3086   -0.2739 C   0  0  0  0  0  0  0  0  0  0  0  0
   -0.9287    0.0188    0.3051 C   0  0  1  0  0  0  0  0  0  0  0  0
   -2.3691   -0.1587   -0.1863 C   0  0  0  0  0  0  0  0  0  0  0  0
   -0.0735   -1.2116   -0.0649 C   0  0  0  0  0  0  0  0  0  0  0  0
    1.3667   -1.0529    0.4463 C   0  0  0  0  0  0  0  0  0  0  0  0
    2.0280    0.2080   -0.1227 C   0  0  0  0  0  0  0  0  0  0  0  0
  1  2  2  0
  2  8  1  0
  2  3  1  0
  3  4  1  0
  4  5  1  6
  4  6  1  0
  6  7  1  0
  7  8  1  0
M  END
$$$$
