CC(CCCC)=O
     RDKit          3D

  7  6  0  0  0  0  0  0  0  0999 V2000
    3.0920    0.4770    0.1432 C   0  0  0  0  0  0  0  0  0  0  0  0
    1.9713   -0.3745    0.6624 C   0  0  0  0  0  0  0  0  0  0  0  0
    0.7484   -0.6564   -0.1705 C   0  0  0  0  0  0  0  0  0  0  0  0
   -0.4885    0.0138    0.4374 C   0  0  0  0  0  0  0  0  0  0  0  0
   -1.7358   -0.2608   -0.4104 C   0  0  0  0  0  0  0  0  0  0  0  0
   -2.9698    0.4038    0.1929 C   0  0  0  0  0  0  0  0  0  0  0  0
    2.0605   -0.8562    1.7817 O   0  0  0  0  0  0  0  0  0  0  0  0
  1  2  1  0
  2  3  1  0
  2  7  2  0
  3  4  1  0
  4  5  1  0
  5  6  1  0
M  END
$$$$
