Cc1cc(C)cnc1
     RDKit          3D

  8  8  0  0  0  0  0  0  0  0999 V2000
   -2.5394    0.5962   -0.1731 C   0  0  0  0  0  0  0  0  0  0  0  0
   -1.2134   -0.0965   -0.0660 C   0  0  0  0  0  0  0  0  0  0  0  0
   -0.0283    0.6504   -0.0800 C   0  0  0  0  0  0  0  0  0  0  0  0
    1.2116    0.0063    0.0294 C   0  0  0  0  0  0  0  0  0  0  0  0
    2.4869    0.7935   -0.0250 C   0  0  0  0  0  0  0  0  0  0  0  0
    1.2406   -1.3919    0.1205 C   0  0  0  0  0  0  0  0  0  0  0  0
    0.0806   -2.1003    0.1313 N   0  0  0  0  0  0  0  0  0  0  0  0
   -1.1319   -1.4919    0.0453 C   0  0  0  0  0  0  0  0  0  0  0  0
  1  2  1  0
  2  3  2  0
  2  8  1  0
  3  4  1  0
  4  5  1  0
  4  6  2  0
  6  7  1  0
  7  8  2  0
M  END
$$$$
