C=CCCCC
     RDKit          3D

  6  5  0  0  0  0  0  0  0  0999 V2000
   -2.9126    0.5548    0.1657 C   0  0  0  0  0  0  0  0  0  0  0  0
   -2.2117   -0.4406    0.7170 C   0  0  0  0  0  0  0  0  0  0  0  0
   -0.9023   -0.9021    0.1387 C   0  0  0  0  0  0  0  0  0  0  0  0
    0.2033    0.1355    0.3678 C   0  0  0  0  0  0  0  0  0  0  0  0
    1.5444   -0.3602   -0.1851 C   0  0  0  0  0  0  0  0  0  0  0  0
    2.6478    0.6698    0.0388 C   0  0  0  0  0  0  0  0  0  0  0  0
  1  2  2  0
  2  3  1  0
  3  4  1  0
  4  5  1  0
  5  6  1  0
M  END
$$$$
