C=CCCC=C
     RDKit          3D

  6  5  0  0  0  0  0  0  0  0999 V2000
   -2.6226    0.1324    0.3065 C   0  0  0  0  0  0  0  0  0  0  0  0
   -1.8436    0.3405   -0.7592 C   0  0  0  0  0  0  0  0  0  0  0  0
   -0.3804    0.6597   -0.6204 C   0  0  0  0  0  0  0  0  0  0  0  0
    0.4147   -0.5659   -0.1599 C   0  0  0  0  0  0  0  0  0  0  0  0
    1.8810   -0.2375   -0.0818 C   0  0  0  0  0  0  0  0  0  0  0  0
    2.5636   -0.3104    1.0646 C   0  0  0  0  0  0  0  0  0  0  0  0
  1  2  2  0
  2  3  1  0
  3  4  1  0
  4  5  1  0
  5  6  2  0
M  END
$$$$
