O=C1C(c3cc(C(F)(F)F)ccc3)=CN(C)C=C1c2ccccc2
     RDKit          3D

 24 26  0  0  0  0  0  0  0  0999 V2000
   -0.5781   -1.6066   -0.2569 O   0  0  0  0  0  0  0  0  0  0  0  0
   -0.5206   -0.3640   -0.0434 C   0  0  0  0  0  0  0  0  0  0  0  0
    0.7275    0.2640    0.1294 C   0  0  0  0  0  0  0  0  0  0  0  0
    1.9945   -0.5105    0.1382 C   0  0  0  0  0  0  0  0  0  0  0  0
    3.0834   -0.0974   -0.6500 C   0  0  0  0  0  0  0  0  0  0  0  0
    4.2953   -0.8108   -0.6328 C   0  0  0  0  0  0  0  0  0  0  0  0
    5.4382   -0.3915   -1.5231 C   0  0  0  0  0  0  0  0  0  0  0  0
    6.6509   -0.7816   -0.9815 F   0  0  0  0  0  0  0  0  0  0  0  0
    5.4566    0.9840   -1.6770 F   0  0  0  0  0  0  0  0  0  0  0  0
    5.2885   -0.9819   -2.7640 F   0  0  0  0  0  0  0  0  0  0  0  0
    4.3933   -1.9716    0.1532 C   0  0  0  0  0  0  0  0  0  0  0  0
    3.3176   -2.3826    0.9431 C   0  0  0  0  0  0  0  0  0  0  0  0
    2.1265   -1.6545    0.9425 C   0  0  0  0  0  0  0  0  0  0  0  0
    0.7645    1.6573    0.2896 C   0  0  0  0  0  0  0  0  0  0  0  0
   -0.3834    2.3954    0.2771 N   0  0  0  0  0  0  0  0  0  0  0  0
   -0.3139    3.8435    0.4877 C   0  0  0  0  0  0  0  0  0  0  0  0
   -1.6004    1.7912    0.1490 C   0  0  0  0  0  0  0  0  0  0  0  0
   -1.7018    0.4015   -0.0151 C   0  0  0  0  0  0  0  0  0  0  0  0
   -3.0398   -0.2260   -0.1607 C   0  0  0  0  0  0  0  0  0  0  0  0
   -3.9791    0.3058   -1.0628 C   0  0  0  0  0  0  0  0  0  0  0  0
   -5.2422   -0.2792   -1.1946 C   0  0  0  0  0  0  0  0  0  0  0  0
   -5.5814   -1.3951   -0.4256 C   0  0  0  0  0  0  0  0  0  0  0  0
   -4.6587   -1.9270    0.4785 C   0  0  0  0  0  0  0  0  0  0  0  0
   -3.3940   -1.3459    0.6136 C   0  0  0  0  0  0  0  0  0  0  0  0
  1  2  2  0
  2 18  1  0
  2  3  1  0
  3  4  1  0
  3 14  2  0
  4 13  1  0
  4  5  2  0
  5  6  1  0
  6 11  2  0
  6  7  1  0
  7  8  1  0
  7  9  1  0
  7 10  1  0
 11 12  1  0
 12 13  2  0
 14 15  1  0
 15 16  1  0
 15 17  1  0
 17 18  2  0
 18 19  1  0
 19 24  1  0
 19 20  2  0
 20 21  1  0
 21 22  2  0
 22 23  1  0
 23 24  2  0
M  END
$$$$
