CC(C)C(O)C
     RDKit          3D

  6  5  0  0  1  0  0  0  0  0999 V2000
   -1.1692    0.6546    0.9788 C   0  0  0  0  0  0  0  0  0  0  0  0
   -0.5662   -0.3423   -0.0247 C   0  0  0  0  0  0  0  0  0  0  0  0
   -1.3303   -0.2737   -1.3546 C   0  0  0  0  0  0  0  0  0  0  0  0
    0.9547   -0.1224   -0.2496 C   0  0  1  0  0  0  0  0  0  0  0  0
    1.2215    1.2062   -0.6233 O   0  0  0  0  0  0  0  0  0  0  0  0
    1.7771   -0.4631    0.9963 C   0  0  0  0  0  0  0  0  0  0  0  0
  1  2  1  0
  2  3  1  0
  4  2  1  1
  4  6  1  0
  4  5  1  0
M  END
$$$$
