CCOCC
     RDKit          3D

  5  4  0  0  0  0  0  0  0  0999 V2000
   -2.1846    0.0816    0.0964 C   0  0  0  0  0  0  0  0  0  0  0  0
   -0.8722    0.1853    0.8660 C   0  0  0  0  0  0  0  0  0  0  0  0
    0.0038   -0.8617    0.4902 O   0  0  0  0  0  0  0  0  0  0  0  0
    0.8734   -0.4586   -0.5518 C   0  0  0  0  0  0  0  0  0  0  0  0
    2.1840    0.0674    0.0236 C   0  0  0  0  0  0  0  0  0  0  0  0
  1  2  1  0
  2  3  1  0
  3  4  1  0
  4  5  1  0
M  END
$$$$
