CNN
     RDKit          3D

  3  2  0  0  0  0  0  0  0  0999 V2000
   -1.0529    0.0880   -0.1045 C   0  0  0  0  0  0  0  0  0  0  0  0
    0.3435    0.4667   -0.3072 N   0  0  0  0  0  0  0  0  0  0  0  0
    1.1525   -0.4903    0.3317 N   0  0  0  0  0  0  0  0  0  0  0  0
  1  2  1  0
  2  3  1  0
M  END
$$$$
