Brc1c(Br)cccc1Br
     RDKit          3D

  9  9  0  0  0  0  0  0  0  0999 V2000
    3.1003    0.8010    0.0818 Br  0  0  0  0  0  0  0  0  0  0  0  0
    1.2389    0.3201    0.0327 C   0  0  0  0  0  0  0  0  0  0  0  0
    0.8548   -1.0358    0.0466 C   0  0  0  0  0  0  0  0  0  0  0  0
    2.1456   -2.4515    0.1141 Br  0  0  0  0  0  0  0  0  0  0  0  0
   -0.5018   -1.3778    0.0106 C   0  0  0  0  0  0  0  0  0  0  0  0
   -1.4782   -0.3819   -0.0390 C   0  0  0  0  0  0  0  0  0  0  0  0
   -1.1048    0.9627   -0.0530 C   0  0  0  0  0  0  0  0  0  0  0  0
    0.2476    1.3206   -0.0175 C   0  0  0  0  0  0  0  0  0  0  0  0
    0.6932    3.1850   -0.0392 Br  0  0  0  0  0  0  0  0  0  0  0  0
  1  2  1  0
  2  8  2  0
  2  3  1  0
  3  4  1  0
  3  5  2  0
  5  6  1  0
  6  7  2  0
  7  8  1  0
  8  9  1  0
M  END
$$$$
