Clc(c(Cl)cc(Cl)c1Cl)c1Cl
     RDKit          3D

 11 11  0  0  0  0  0  0  0  0999 V2000
   -3.0712    0.6843    0.0129 Cl  0  0  0  0  0  0  0  0  0  0  0  0
   -1.3447    0.3211    0.0057 C   0  0  0  0  0  0  0  0  0  0  0  0
   -0.4077    1.3684    0.0044 C   0  0  0  0  0  0  0  0  0  0  0  0
   -0.9176    3.0523    0.0098 Cl  0  0  0  0  0  0  0  0  0  0  0  0
    0.9595    1.0822   -0.0014 C   0  0  0  0  0  0  0  0  0  0  0  0
    1.4074   -0.2409   -0.0058 C   0  0  0  0  0  0  0  0  0  0  0  0
    3.1402   -0.5453   -0.0129 Cl  0  0  0  0  0  0  0  0  0  0  0  0
    0.4798   -1.2966   -0.0045 C   0  0  0  0  0  0  0  0  0  0  0  0
    1.0472   -2.9672   -0.0101 Cl  0  0  0  0  0  0  0  0  0  0  0  0
   -0.9000   -1.0151    0.0013 C   0  0  0  0  0  0  0  0  0  0  0  0
   -2.0708   -2.3357    0.0029 Cl  0  0  0  0  0  0  0  0  0  0  0  0
  1  2  1  0
  2  3  2  0
  2 10  1  0
  3  5  1  0
  3  4  1  0
  5  6  2  0
  6  8  1  0
  6  7  1  0
  8  9  1  0
  8 10  2  0
 10 11  1  0
M  END
$$$$
