Cc1c(C)c(Nc2c(C(O)=O)cccc2)ccc1
     RDKit          3D

 18 19  0  0  0  0  0  0  0  0999 V2000
    4.1846    1.3592    0.5326 C   0  0  0  0  0  0  0  0  0  0  0  0
    2.9623    0.6096    0.0671 C   0  0  0  0  0  0  0  0  0  0  0  0
    1.7923    0.5112    0.8683 C   0  0  0  0  0  0  0  0  0  0  0  0
    1.7212    1.1698    2.2286 C   0  0  0  0  0  0  0  0  0  0  0  0
    0.6914   -0.2531    0.4003 C   0  0  0  0  0  0  0  0  0  0  0  0
   -0.4765   -0.4418    1.2268 N   0  0  0  0  0  0  0  0  0  0  0  0
   -1.7698   -0.7832    0.7013 C   0  0  0  0  0  0  0  0  0  0  0  0
   -2.4191    0.0125   -0.2798 C   0  0  0  0  0  0  0  0  0  0  0  0
   -1.8883    1.3240   -0.7197 C   0  0  0  0  0  0  0  0  0  0  0  0
   -2.2420    1.8352   -1.9657 O   0  0  0  0  0  0  0  0  0  0  0  0
   -1.1466    2.0055    0.0377 O   0  0  0  0  0  0  0  0  0  0  0  0
   -3.6378   -0.4356   -0.8215 C   0  0  0  0  0  0  0  0  0  0  0  0
   -4.2240   -1.6211   -0.3733 C   0  0  0  0  0  0  0  0  0  0  0  0
   -3.6053   -2.3746    0.6230 C   0  0  0  0  0  0  0  0  0  0  0  0
   -2.3869   -1.9569    1.1594 C   0  0  0  0  0  0  0  0  0  0  0  0
    0.7584   -0.8584   -0.8671 C   0  0  0  0  0  0  0  0  0  0  0  0
    1.8966   -0.7294   -1.6568 C   0  0  0  0  0  0  0  0  0  0  0  0
    2.9929   -0.0089   -1.1929 C   0  0  0  0  0  0  0  0  0  0  0  0
  1  2  1  0
  2 18  2  0
  2  3  1  0
  3  4  1  0
  3  5  2  0
  5 16  1  0
  5  6  1  0
  6  7  1  0
  7 15  1  0
  7  8  2  0
  8 12  1  0
  8  9  1  0
  9 10  1  0
  9 11  2  0
 12 13  2  0
 13 14  1  0
 14 15  2  0
 16 17  2  0
 17 18  1  0
M  END
$$$$
