Nc3cc2cc1ccccc1cc2cc3
     RDKit          3D

 15 17  0  0  0  0  0  0  0  0999 V2000
    4.6090    0.5769   -0.1551 N   0  0  0  0  0  0  0  0  0  0  0  0
    3.2703    0.0755   -0.1993 C   0  0  0  0  0  0  0  0  0  0  0  0
    2.1916    0.9202    0.0989 C   0  0  0  0  0  0  0  0  0  0  0  0
    0.8758    0.4324    0.0568 C   0  0  0  0  0  0  0  0  0  0  0  0
   -0.2058    1.2748    0.3546 C   0  0  0  0  0  0  0  0  0  0  0  0
   -1.5188    0.7832    0.3113 C   0  0  0  0  0  0  0  0  0  0  0  0
   -2.6049    1.6220    0.6085 C   0  0  0  0  0  0  0  0  0  0  0  0
   -3.9100    1.1239    0.5629 C   0  0  0  0  0  0  0  0  0  0  0  0
   -4.1417   -0.2109    0.2216 C   0  0  0  0  0  0  0  0  0  0  0  0
   -3.0699   -1.0570   -0.0765 C   0  0  0  0  0  0  0  0  0  0  0  0
   -1.7537   -0.5699   -0.0347 C   0  0  0  0  0  0  0  0  0  0  0  0
   -0.6722   -1.4120   -0.3324 C   0  0  0  0  0  0  0  0  0  0  0  0
    0.6407   -0.9200   -0.2890 C   0  0  0  0  0  0  0  0  0  0  0  0
    1.7258   -1.7584   -0.5860 C   0  0  0  0  0  0  0  0  0  0  0  0
    3.0313   -1.2624   -0.5410 C   0  0  0  0  0  0  0  0  0  0  0  0
  1  2  1  0
  2 15  2  0
  2  3  1  0
  3  4  2  0
  4  5  1  0
  4 13  1  0
  5  6  2  0
  6  7  1  0
  6 11  1  0
  7  8  2  0
  8  9  1  0
  9 10  2  0
 10 11  1  0
 11 12  2  0
 12 13  1  0
 13 14  2  0
 14 15  1  0
M  END
$$$$
