Cc1cc(cc(cccc3)c3c2)c2cc1
     RDKit          3D

 15 17  0  0  0  0  0  0  0  0999 V2000
   -4.3876    0.2216    1.1259 C   0  0  0  0  0  0  0  0  0  0  0  0
   -3.0601    0.1567    0.4297 C   0  0  0  0  0  0  0  0  0  0  0  0
   -1.8657    0.0900    1.1646 C   0  0  0  0  0  0  0  0  0  0  0  0
   -0.6283    0.0296    0.5039 C   0  0  0  0  0  0  0  0  0  0  0  0
    0.5670   -0.0371    1.2356 C   0  0  0  0  0  0  0  0  0  0  0  0
    1.8011   -0.0973    0.5719 C   0  0  0  0  0  0  0  0  0  0  0  0
    3.0001   -0.1642    1.2994 C   0  0  0  0  0  0  0  0  0  0  0  0
    4.2255   -0.2239    0.6299 C   0  0  0  0  0  0  0  0  0  0  0  0
    4.2648   -0.2174   -0.7666 C   0  0  0  0  0  0  0  0  0  0  0  0
    3.0789   -0.1511   -1.5034 C   0  0  0  0  0  0  0  0  0  0  0  0
    1.8410   -0.0907   -0.8438 C   0  0  0  0  0  0  0  0  0  0  0  0
    0.6461   -0.0240   -1.5752 C   0  0  0  0  0  0  0  0  0  0  0  0
   -0.5880    0.0362   -0.9109 C   0  0  0  0  0  0  0  0  0  0  0  0
   -1.7855    0.1031   -1.6383 C   0  0  0  0  0  0  0  0  0  0  0  0
   -3.0117    0.1628   -0.9715 C   0  0  0  0  0  0  0  0  0  0  0  0
  1  2  1  0
  2 15  2  0
  2  3  1  0
  3  4  2  0
  4  5  1  0
  4 13  1  0
  5  6  2  0
  6  7  1  0
  6 11  1  0
  7  8  2  0
  8  9  1  0
  9 10  2  0
 10 11  1  0
 11 12  2  0
 12 13  1  0
 13 14  2  0
 14 15  1  0
M  END
$$$$
