O=C(O)COc(cccc1)c1Cl
     RDKit          3D

 12 12  0  0  0  0  0  0  0  0999 V2000
    4.0909   -0.0327    0.7946 O   0  0  0  0  0  0  0  0  0  0  0  0
    3.1663   -0.0018   -0.0608 C   0  0  0  0  0  0  0  0  0  0  0  0
    3.2618    0.8469   -1.1589 O   0  0  0  0  0  0  0  0  0  0  0  0
    1.9434   -0.8343    0.1291 C   0  0  0  0  0  0  0  0  0  0  0  0
    0.9847   -0.0905    0.8767 O   0  0  0  0  0  0  0  0  0  0  0  0
   -0.3707    0.0113    0.5357 C   0  0  0  0  0  0  0  0  0  0  0  0
   -0.9652    1.2791    0.5815 C   0  0  0  0  0  0  0  0  0  0  0  0
   -2.3086    1.4470    0.2368 C   0  0  0  0  0  0  0  0  0  0  0  0
   -3.0751    0.3443   -0.1434 C   0  0  0  0  0  0  0  0  0  0  0  0
   -2.5032   -0.9298   -0.1662 C   0  0  0  0  0  0  0  0  0  0  0  0
   -1.1568   -1.1088    0.1776 C   0  0  0  0  0  0  0  0  0  0  0  0
   -0.5339   -2.7526    0.2436 Cl  0  0  0  0  0  0  0  0  0  0  0  0
  1  2  2  0
  2  4  1  0
  2  3  1  0
  4  5  1  0
  5  6  1  0
  6  7  2  0
  6 11  1  0
  7  8  1  0
  8  9  2  0
  9 10  1  0
 10 11  2  0
 11 12  1  0
M  END
$$$$
