CC(Nc(cccc1)c1O)=O
     RDKit          3D

 11 11  0  0  0  0  0  0  0  0999 V2000
    3.4775   -0.9192    0.1549 C   0  0  0  0  0  0  0  0  0  0  0  0
    2.1032   -0.6529   -0.3698 C   0  0  0  0  0  0  0  0  0  0  0  0
    1.1098   -0.0442    0.4712 N   0  0  0  0  0  0  0  0  0  0  0  0
   -0.2818    0.0595    0.1197 C   0  0  0  0  0  0  0  0  0  0  0  0
   -0.9349   -0.9826   -0.5650 C   0  0  0  0  0  0  0  0  0  0  0  0
   -2.2933   -0.8818   -0.8773 C   0  0  0  0  0  0  0  0  0  0  0  0
   -3.0164    0.2511   -0.5003 C   0  0  0  0  0  0  0  0  0  0  0  0
   -2.3847    1.2834    0.1965 C   0  0  0  0  0  0  0  0  0  0  0  0
   -1.0212    1.1915    0.5133 C   0  0  0  0  0  0  0  0  0  0  0  0
   -0.3958    2.2253    1.2094 O   0  0  0  0  0  0  0  0  0  0  0  0
    1.8412   -0.9385   -1.5692 O   0  0  0  0  0  0  0  0  0  0  0  0
  1  2  1  0
  2  3  1  0
  2 11  2  0
  3  4  1  0
  4  5  2  0
  4  9  1  0
  5  6  1  0
  6  7  2  0
  7  8  1  0
  8  9  2  0
  9 10  1  0
M  END
$$$$
