Brc(cc(Br)cc1)c1Br
     RDKit          3D

  9  9  0  0  0  0  0  0  0  0999 V2000
   -2.2462   -2.3540    0.0699 Br  0  0  0  0  0  0  0  0  0  0  0  0
   -0.9406   -0.9524    0.0284 C   0  0  0  0  0  0  0  0  0  0  0  0
    0.4162   -1.2997    0.0303 C   0  0  0  0  0  0  0  0  0  0  0  0
    1.3991   -0.3050    0.0006 C   0  0  0  0  0  0  0  0  0  0  0  0
    3.2472   -0.7868    0.0034 Br  0  0  0  0  0  0  0  0  0  0  0  0
    1.0275    1.0423   -0.0311 C   0  0  0  0  0  0  0  0  0  0  0  0
   -0.3248    1.3952   -0.0332 C   0  0  0  0  0  0  0  0  0  0  0  0
   -1.3136    0.4041   -0.0035 C   0  0  0  0  0  0  0  0  0  0  0  0
   -3.1524    0.9422   -0.0078 Br  0  0  0  0  0  0  0  0  0  0  0  0
  1  2  1  0
  2  3  2  0
  2  8  1  0
  3  4  1  0
  4  6  2  0
  4  5  1  0
  6  7  1  0
  7  8  2  0
  8  9  1  0
M  END
$$$$
