Clc(cc1C)ccc1N=CN(C)C
     RDKit          3D

 13 13  0  0  0  0  0  0  0  0999 V2000
    3.9163   -2.4085    1.2470 Cl  0  0  0  0  0  0  0  0  0  0  0  0
    2.6987   -1.3961    0.4922 C   0  0  0  0  0  0  0  0  0  0  0  0
    2.8639   -0.0083    0.4616 C   0  0  0  0  0  0  0  0  0  0  0  0
    1.8948    0.8104   -0.1432 C   0  0  0  0  0  0  0  0  0  0  0  0
    2.0801    2.3024   -0.1657 C   0  0  0  0  0  0  0  0  0  0  0  0
    1.5694   -1.9776   -0.0877 C   0  0  0  0  0  0  0  0  0  0  0  0
    0.5984   -1.1743   -0.6886 C   0  0  0  0  0  0  0  0  0  0  0  0
    0.7375    0.2257   -0.6982 C   0  0  0  0  0  0  0  0  0  0  0  0
   -0.2427    1.0592   -1.3408 N   0  0  0  0  0  0  0  0  0  0  0  0
   -1.5375    0.9332   -1.2765 C   0  0  0  0  0  0  0  0  0  0  0  0
   -2.1856   -0.0001   -0.3965 N   0  0  0  0  0  0  0  0  0  0  0  0
   -3.3143   -0.7718   -0.9106 C   0  0  0  0  0  0  0  0  0  0  0  0
   -1.9042   -0.0060    1.0408 C   0  0  0  0  0  0  0  0  0  0  0  0
  1  2  1  0
  2  6  2  0
  2  3  1  0
  3  4  2  0
  4  5  1  0
  4  8  1  0
  6  7  1  0
  7  8  2  0
  8  9  1  0
  9 10  2  0
 10 11  1  0
 11 12  1  0
 11 13  1  0
M  END
$$$$
