O=C(c1cc(I)ccc1)O
     RDKit          3D

 10 10  0  0  0  0  0  0  0  0999 V2000
    2.9146   -0.7557   -0.2688 O   0  0  0  0  0  0  0  0  0  0  0  0
    2.1171    0.1721    0.0363 C   0  0  0  0  0  0  0  0  0  0  0  0
    0.6551   -0.0472   -0.0210 C   0  0  0  0  0  0  0  0  0  0  0  0
   -0.2326    0.9895    0.3199 C   0  0  0  0  0  0  0  0  0  0  0  0
   -1.6158    0.7841    0.2664 C   0  0  0  0  0  0  0  0  0  0  0  0
   -2.9351    2.3475    0.7804 I   0  0  0  0  0  0  0  0  0  0  0  0
   -2.1243   -0.4567   -0.1277 C   0  0  0  0  0  0  0  0  0  0  0  0
   -1.2520   -1.4927   -0.4683 C   0  0  0  0  0  0  0  0  0  0  0  0
    0.1307   -1.2922   -0.4163 C   0  0  0  0  0  0  0  0  0  0  0  0
    2.6268    1.4073    0.4285 O   0  0  0  0  0  0  0  0  0  0  0  0
  1  2  2  0
  2  3  1  0
  2 10  1  0
  3  9  2  0
  3  4  1  0
  4  5  2  0
  5  7  1  0
  5  6  1  0
  7  8  2  0
  8  9  1  0
M  END
$$$$
