CCOc1ccc(NC(C)=O)cc1
     RDKit          3D

 13 13  0  0  0  0  0  0  0  0999 V2000
   -4.1523    0.3024    1.0052 C   0  0  0  0  0  0  0  0  0  0  0  0
   -3.9726   -0.4453   -0.3121 C   0  0  0  0  0  0  0  0  0  0  0  0
   -2.8954    0.1076   -1.0691 O   0  0  0  0  0  0  0  0  0  0  0  0
   -1.5297   -0.0391   -0.7748 C   0  0  0  0  0  0  0  0  0  0  0  0
   -0.6096    0.7015   -1.5252 C   0  0  0  0  0  0  0  0  0  0  0  0
    0.7620    0.5962   -1.2769 C   0  0  0  0  0  0  0  0  0  0  0  0
    1.2363   -0.2502   -0.2599 C   0  0  0  0  0  0  0  0  0  0  0  0
    2.6429   -0.3964    0.0016 N   0  0  0  0  0  0  0  0  0  0  0  0
    3.6026    0.6631   -0.1348 C   0  0  0  0  0  0  0  0  0  0  0  0
    5.0621    0.3615   -0.0313 C   0  0  0  0  0  0  0  0  0  0  0  0
    3.2268    1.8600   -0.2580 O   0  0  0  0  0  0  0  0  0  0  0  0
    0.3176   -1.0146    0.4733 C   0  0  0  0  0  0  0  0  0  0  0  0
   -1.0542   -0.9085    0.2255 C   0  0  0  0  0  0  0  0  0  0  0  0
  1  2  1  0
  2  3  1  0
  3  4  1  0
  4 13  2  0
  4  5  1  0
  5  6  2  0
  6  7  1  0
  7 12  2  0
  7  8  1  0
  8  9  1  0
  9 10  1  0
  9 11  2  0
 12 13  1  0
M  END
$$$$
