O=C(CC)Nc1ccccc1
     RDKit          3D

 11 11  0  0  0  0  0  0  0  0999 V2000
    1.2959    0.6980   -1.6282 O   0  0  0  0  0  0  0  0  0  0  0  0
    1.5465   -0.0548   -0.6483 C   0  0  0  0  0  0  0  0  0  0  0  0
    2.9722   -0.2986   -0.2550 C   0  0  0  0  0  0  0  0  0  0  0  0
    3.3537    0.5686    0.9388 C   0  0  0  0  0  0  0  0  0  0  0  0
    0.4826   -0.6805    0.0866 N   0  0  0  0  0  0  0  0  0  0  0  0
   -0.9067   -0.3391   -0.0568 C   0  0  0  0  0  0  0  0  0  0  0  0
   -1.8810   -1.3365    0.1079 C   0  0  0  0  0  0  0  0  0  0  0  0
   -3.2395   -1.0247   -0.0037 C   0  0  0  0  0  0  0  0  0  0  0  0
   -3.6371    0.2888   -0.2652 C   0  0  0  0  0  0  0  0  0  0  0  0
   -2.6770    1.2938   -0.4071 C   0  0  0  0  0  0  0  0  0  0  0  0
   -1.3171    0.9859   -0.2972 C   0  0  0  0  0  0  0  0  0  0  0  0
  1  2  2  0
  2  3  1  0
  2  5  1  0
  3  4  1  0
  5  6  1  0
  6 11  2  0
  6  7  1  0
  7  8  2  0
  8  9  1  0
  9 10  2  0
 10 11  1  0
M  END
$$$$
