CC(Nc(cc1)ccc1I)=O
     RDKit          3D

 11 11  0  0  0  0  0  0  0  0999 V2000
    3.5587    0.3322   -0.2568 C   0  0  0  0  0  0  0  0  0  0  0  0
    2.1469   -0.0632   -0.5442 C   0  0  0  0  0  0  0  0  0  0  0  0
    1.1253    0.1841    0.4341 N   0  0  0  0  0  0  0  0  0  0  0  0
   -0.2826    0.0196    0.1917 C   0  0  0  0  0  0  0  0  0  0  0  0
   -1.1182   -0.3894    1.2428 C   0  0  0  0  0  0  0  0  0  0  0  0
   -2.4937   -0.5355    1.0388 C   0  0  0  0  0  0  0  0  0  0  0  0
   -0.8532    0.3177   -1.0599 C   0  0  0  0  0  0  0  0  0  0  0  0
   -2.2295    0.1716   -1.2605 C   0  0  0  0  0  0  0  0  0  0  0  0
   -3.0498   -0.2592   -0.2136 C   0  0  0  0  0  0  0  0  0  0  0  0
   -5.1253   -0.4761   -0.5188 I   0  0  0  0  0  0  0  0  0  0  0  0
    1.8737   -0.6441   -1.6292 O   0  0  0  0  0  0  0  0  0  0  0  0
  1  2  1  0
  2  3  1  0
  2 11  2  0
  3  4  1  0
  4  5  2  0
  4  7  1  0
  5  6  1  0
  6  9  2  0
  7  8  2  0
  8  9  1  0
  9 10  1  0
M  END
$$$$
