CC(OC1CCCCC1)=O
     RDKit          3D

 10 10  0  0  0  0  0  0  0  0999 V2000
    3.9835   -0.3312   -0.2537 C   0  0  0  0  0  0  0  0  0  0  0  0
    2.5693   -0.6413   -0.6099 C   0  0  0  0  0  0  0  0  0  0  0  0
    1.5727    0.3012   -0.3339 O   0  0  0  0  0  0  0  0  0  0  0  0
    0.1858    0.0806   -0.5916 C   0  0  0  0  0  0  0  0  0  0  0  0
   -0.4045   -0.8736    0.4635 C   0  0  0  0  0  0  0  0  0  0  0  0
   -1.9141   -1.0553    0.2610 C   0  0  0  0  0  0  0  0  0  0  0  0
   -2.6395    0.2954    0.2831 C   0  0  0  0  0  0  0  0  0  0  0  0
   -2.0543    1.2500   -0.7643 C   0  0  0  0  0  0  0  0  0  0  0  0
   -0.5450    1.4314   -0.5598 C   0  0  0  0  0  0  0  0  0  0  0  0
    2.2863   -1.7403   -1.1602 O   0  0  0  0  0  0  0  0  0  0  0  0
  1  2  1  0
  2 10  2  0
  2  3  1  0
  3  4  1  0
  4  5  1  0
  4  9  1  0
  5  6  1  0
  6  7  1  0
  7  8  1  0
  8  9  1  0
M  END
$$$$
