CCc1ccc(C)cc1
     RDKit          3D

  9  9  0  0  0  0  0  0  0  0999 V2000
    3.1082    0.1214   -0.7149 C   0  0  0  0  0  0  0  0  0  0  0  0
    2.2970    0.0867    0.5775 C   0  0  0  0  0  0  0  0  0  0  0  0
    0.8187    0.0246    0.2911 C   0  0  0  0  0  0  0  0  0  0  0  0
    0.0859   -1.1396    0.5741 C   0  0  0  0  0  0  0  0  0  0  0  0
   -1.2865   -1.1914    0.3124 C   0  0  0  0  0  0  0  0  0  0  0  0
   -1.9437   -0.0839   -0.2442 C   0  0  0  0  0  0  0  0  0  0  0  0
   -3.4231   -0.1267   -0.4875 C   0  0  0  0  0  0  0  0  0  0  0  0
   -1.2179    1.0877   -0.5056 C   0  0  0  0  0  0  0  0  0  0  0  0
    0.1545    1.1402   -0.2444 C   0  0  0  0  0  0  0  0  0  0  0  0
  1  2  1  0
  2  3  1  0
  3  9  2  0
  3  4  1  0
  4  5  2  0
  5  6  1  0
  6  7  1  0
  6  8  2  0
  8  9  1  0
M  END
$$$$
