CCCC(OC)=O
     RDKit          3D

  7  6  0  0  0  0  0  0  0  0999 V2000
   -2.8596   -0.1667    0.0366 C   0  0  0  0  0  0  0  0  0  0  0  0
   -1.4160   -0.4805    0.4187 C   0  0  0  0  0  0  0  0  0  0  0  0
   -0.4745    0.6535    0.0004 C   0  0  0  0  0  0  0  0  0  0  0  0
    0.9427    0.3295    0.3575 C   0  0  0  0  0  0  0  0  0  0  0  0
    1.8903    0.1715   -0.6580 O   0  0  0  0  0  0  0  0  0  0  0  0
    3.2533   -0.1366   -0.3922 C   0  0  0  0  0  0  0  0  0  0  0  0
    1.2732    0.2109    1.5694 O   0  0  0  0  0  0  0  0  0  0  0  0
  1  2  1  0
  2  3  1  0
  3  4  1  0
  4  7  2  0
  4  5  1  0
  5  6  1  0
M  END
$$$$
