CC(C)(O)CC(C)C
     RDKit          3D

  8  7  0  0  0  0  0  0  0  0999 V2000
   -2.2461    0.7614    1.0473 C   0  0  0  0  0  0  0  0  0  0  0  0
   -1.1111    0.3320    0.0928 C   0  0  0  0  0  0  0  0  0  0  0  0
   -1.3051   -1.1537   -0.2732 C   0  0  0  0  0  0  0  0  0  0  0  0
   -1.1742    1.1286   -1.0666 O   0  0  0  0  0  0  0  0  0  0  0  0
    0.2473    0.5862    0.8155 C   0  0  0  0  0  0  0  0  0  0  0  0
    1.5760    0.1952    0.1035 C   0  0  0  0  0  0  0  0  0  0  0  0
    1.9366   -1.2915    0.2487 C   0  0  0  0  0  0  0  0  0  0  0  0
    1.6658    0.6515   -1.3576 C   0  0  0  0  0  0  0  0  0  0  0  0
  1  2  1  0
  2  3  1  0
  2  5  1  0
  2  4  1  0
  5  6  1  0
  6  8  1  0
  6  7  1  0
M  END
$$$$
