CCOC(C)C
     RDKit          3D

  6  5  0  0  0  0  0  0  0  0999 V2000
    2.3204    0.5583   -0.4838 C   0  0  0  0  0  0  0  0  0  0  0  0
    1.4815    0.0114    0.6665 C   0  0  0  0  0  0  0  0  0  0  0  0
    0.1915    0.5950    0.6575 O   0  0  0  0  0  0  0  0  0  0  0  0
   -0.7294   -0.1826   -0.0900 C   0  0  0  0  0  0  0  0  0  0  0  0
   -1.7072    0.7625   -0.7869 C   0  0  0  0  0  0  0  0  0  0  0  0
   -1.4871   -1.1276    0.8476 C   0  0  0  0  0  0  0  0  0  0  0  0
  1  2  1  0
  2  3  1  0
  3  4  1  0
  4  6  1  0
  4  5  1  0
M  END
$$$$
