CN1CCCCC1
     RDKit          3D

  7  7  0  0  0  0  0  0  0  0999 V2000
   -2.3892   -0.2108   -0.0222 C   0  0  0  0  0  0  0  0  0  0  0  0
   -0.9763   -0.1062    0.3729 N   0  0  0  0  0  0  0  0  0  0  0  0
   -0.2082   -1.2276   -0.2046 C   0  0  0  0  0  0  0  0  0  0  0  0
    1.2512   -1.1685    0.2599 C   0  0  0  0  0  0  0  0  0  0  0  0
    1.8822    0.1733   -0.1215 C   0  0  0  0  0  0  0  0  0  0  0  0
    1.0290    1.3365    0.3917 C   0  0  0  0  0  0  0  0  0  0  0  0
   -0.4223    1.1865   -0.0777 C   0  0  0  0  0  0  0  0  0  0  0  0
  1  2  1  0
  2  7  1  0
  2  3  1  0
  3  4  1  0
  4  5  1  0
  5  6  1  0
  6  7  1  0
M  END
$$$$
