O=C(NC(C)=C1)NC1=O
     RDKit          3D

  9  9  0  0  0  0  0  0  0  0999 V2000
   -1.9836   -2.1876    0.5808 O   0  0  0  0  0  0  0  0  0  0  0  0
   -1.3494   -1.1249    0.3419 C   0  0  0  0  0  0  0  0  0  0  0  0
   -0.0032   -1.1673    0.1416 N   0  0  0  0  0  0  0  0  0  0  0  0
    0.7011   -0.0314   -0.1277 C   0  0  0  0  0  0  0  0  0  0  0  0
    2.1888   -0.0896   -0.3088 C   0  0  0  0  0  0  0  0  0  0  0  0
    0.0363    1.1986   -0.1689 C   0  0  0  0  0  0  0  0  0  0  0  0
   -2.0115    0.0633    0.2871 N   0  0  0  0  0  0  0  0  0  0  0  0
   -1.3427    1.2216    0.0393 C   0  0  0  0  0  0  0  0  0  0  0  0
   -1.9667    2.3154   -0.0007 O   0  0  0  0  0  0  0  0  0  0  0  0
  1  2  2  0
  2  3  1  0
  2  7  1  0
  3  4  1  0
  4  5  1  0
  4  6  2  0
  6  8  1  0
  7  8  1  0
  8  9  2  0
M  END
$$$$
