CC(O)CCCC
     RDKit          3D

  7  6  0  0  1  0  0  0  0  0999 V2000
   -2.9671    0.3494   -0.1529 C   0  0  0  0  0  0  0  0  0  0  0  0
   -1.4757    0.1811   -0.4579 C   0  0  1  0  0  0  0  0  0  0  0  0
   -0.9659    1.3959   -0.9426 O   0  0  0  0  0  0  0  0  0  0  0  0
   -0.7096   -0.2342    0.8137 C   0  0  0  0  0  0  0  0  0  0  0  0
    0.6910   -0.8046    0.5273 C   0  0  0  0  0  0  0  0  0  0  0  0
    1.6916    0.2603    0.0556 C   0  0  0  0  0  0  0  0  0  0  0  0
    3.1076   -0.3056   -0.0078 C   0  0  0  0  0  0  0  0  0  0  0  0
  2  1  1  1
  2  4  1  0
  2  3  1  0
  4  5  1  0
  5  6  1  0
  6  7  1  0
M  END
$$$$
