CCCOC(C)C
     RDKit          3D

  7  6  0  0  0  0  0  0  0  0999 V2000
    2.8639    0.4665   -0.2078 C   0  0  0  0  0  0  0  0  0  0  0  0
    2.0956   -0.8205   -0.5016 C   0  0  0  0  0  0  0  0  0  0  0  0
    0.7453   -0.8540    0.2150 C   0  0  0  0  0  0  0  0  0  0  0  0
   -0.0836    0.1770   -0.2830 O   0  0  0  0  0  0  0  0  0  0  0  0
   -1.3805    0.1000    0.2839 C   0  0  0  0  0  0  0  0  0  0  0  0
   -1.8716    1.5198    0.5635 C   0  0  0  0  0  0  0  0  0  0  0  0
   -2.3261   -0.6017   -0.6950 C   0  0  0  0  0  0  0  0  0  0  0  0
  1  2  1  0
  2  3  1  0
  3  4  1  0
  4  5  1  0
  5  7  1  0
  5  6  1  0
M  END
$$$$
