O=C(OCCCCC)C
     RDKit          3D

  9  8  0  0  0  0  0  0  0  0999 V2000
    2.7868    0.7905   -0.8078 O   0  0  0  0  0  0  0  0  0  0  0  0
    2.8626   -0.3315   -0.2371 C   0  0  0  0  0  0  0  0  0  0  0  0
    1.9810   -0.6726    0.7947 O   0  0  0  0  0  0  0  0  0  0  0  0
    0.9035    0.1623    1.2148 C   0  0  0  0  0  0  0  0  0  0  0  0
   -0.2491    0.0993    0.2081 C   0  0  0  0  0  0  0  0  0  0  0  0
   -1.4412    0.9433    0.6822 C   0  0  0  0  0  0  0  0  0  0  0  0
   -2.5700    1.0070   -0.3581 C   0  0  0  0  0  0  0  0  0  0  0  0
   -3.3076   -0.3228   -0.5122 C   0  0  0  0  0  0  0  0  0  0  0  0
    3.9412   -1.2845   -0.6254 C   0  0  0  0  0  0  0  0  0  0  0  0
  1  2  2  0
  2  9  1  0
  2  3  1  0
  3  4  1  0
  4  5  1  0
  5  6  1  0
  6  7  1  0
  7  8  1  0
M  END
$$$$
