CCCCOC
     RDKit          3D

  6  5  0  0  0  0  0  0  0  0999 V2000
   -2.4936    0.0624   -0.4131 C   0  0  0  0  0  0  0  0  0  0  0  0
   -1.4688    0.7824    0.4628 C   0  0  0  0  0  0  0  0  0  0  0  0
   -0.2685   -0.1053    0.8261 C   0  0  0  0  0  0  0  0  0  0  0  0
    0.6453   -0.3879   -0.3737 C   0  0  0  0  0  0  0  0  0  0  0  0
    1.7671   -1.1457    0.0403 O   0  0  0  0  0  0  0  0  0  0  0  0
    2.8829   -0.3063    0.2420 C   0  0  0  0  0  0  0  0  0  0  0  0
  1  2  1  0
  2  3  1  0
  3  4  1  0
  4  5  1  0
  5  6  1  0
M  END
$$$$
