CCCCCCCBr
     RDKit          3D

  8  7  0  0  0  0  0  0  0  0999 V2000
    3.2690   -0.3862    0.4938 C   0  0  0  0  0  0  0  0  0  0  0  0
    2.6325    0.2464   -0.7434 C   0  0  0  0  0  0  0  0  0  0  0  0
    1.2426    0.8372   -0.4607 C   0  0  0  0  0  0  0  0  0  0  0  0
    0.1800   -0.2446   -0.2164 C   0  0  0  0  0  0  0  0  0  0  0  0
   -1.2123    0.3787   -0.0604 C   0  0  0  0  0  0  0  0  0  0  0  0
   -2.2729   -0.7013    0.1954 C   0  0  0  0  0  0  0  0  0  0  0  0
   -3.6781   -0.1080    0.3194 C   0  0  0  0  0  0  0  0  0  0  0  0
   -3.8885    0.8879    1.9726 Br  0  0  0  0  0  0  0  0  0  0  0  0
  1  2  1  0
  2  3  1  0
  3  4  1  0
  4  5  1  0
  5  6  1  0
  6  7  1  0
  7  8  1  0
M  END
$$$$
