
     RDKit          3D

 15 16  0  0  0  0  0  0  0  0999 V2000
    2.5838   -1.1219   -0.7976 O   0  0  0  0  0  0  0  0  0  0  0  0
    2.4490   -0.0514   -0.1433 C   0  0  0  0  0  0  0  0  0  0  0  0
    3.6010    0.6302    0.3610 N   0  0  0  0  0  0  0  0  0  0  0  0
    4.9535    0.1473    0.1126 C   0  0  0  0  0  0  0  0  0  0  0  0
    1.1763    0.4557    0.1481 O   0  0  0  0  0  0  0  0  0  0  0  0
   -0.0181    0.0672   -0.4825 C   0  0  0  0  0  0  0  0  0  0  0  0
   -1.2303    0.1144    0.2391 C   0  0  0  0  0  0  0  0  0  0  0  0
   -1.2595    0.5235    1.5857 C   0  0  0  0  0  0  0  0  0  0  0  0
   -2.4674    0.5571    2.2877 C   0  0  0  0  0  0  0  0  0  0  0  0
   -3.6570    0.1836    1.6598 C   0  0  0  0  0  0  0  0  0  0  0  0
   -3.6479   -0.2261    0.3247 C   0  0  0  0  0  0  0  0  0  0  0  0
   -2.4427   -0.2643   -0.3941 C   0  0  0  0  0  0  0  0  0  0  0  0
   -2.4311   -0.6728   -1.7347 C   0  0  0  0  0  0  0  0  0  0  0  0
   -1.2337   -0.6986   -2.4492 C   0  0  0  0  0  0  0  0  0  0  0  0
   -0.0371   -0.3272   -1.8337 C   0  0  0  0  0  0  0  0  0  0  0  0
  1  2  2  0
  2  3  1  0
  2  5  1  0
  3  4  1  0
  5  6  1  0
  6 15  2  0
  6  7  1  0
  7  8  2  0
  7 12  1  0
  8  9  1  0
  9 10  2  0
 10 11  1  0
 11 12  2  0
 12 13  1  0
 13 14  2  0
 14 15  1  0
M  END
$$$$
