ClC(Cl)(Cl)CCl
     RDKit          3D

  6  5  0  0  0  0  0  0  0  0999 V2000
    1.4992   -1.2816   -0.7739 Cl  0  0  0  0  0  0  0  0  0  0  0  0
    0.7019    0.0309    0.1345 C   0  0  0  0  0  0  0  0  0  0  0  0
    0.9440   -0.2337    1.8823 Cl  0  0  0  0  0  0  0  0  0  0  0  0
    1.4795    1.5710   -0.3105 Cl  0  0  0  0  0  0  0  0  0  0  0  0
   -0.7907    0.1000   -0.2047 C   0  0  0  0  0  0  0  0  0  0  0  0
   -1.6492   -1.4114    0.2121 Cl  0  0  0  0  0  0  0  0  0  0  0  0
  1  2  1  0
  2  5  1  0
  2  4  1  0
  2  3  1  0
  5  6  1  0
M  END
$$$$
