O=C(N(C)C)N(C)C
     RDKit          3D

  8  7  0  0  0  0  0  0  0  0999 V2000
    0.5630    2.0262    0.6079 O   0  0  0  0  0  0  0  0  0  0  0  0
    0.2352    0.8466    0.3040 C   0  0  0  0  0  0  0  0  0  0  0  0
   -1.1604    0.5009    0.2237 N   0  0  0  0  0  0  0  0  0  0  0  0
   -2.1116    1.1443    1.1303 C   0  0  0  0  0  0  0  0  0  0  0  0
   -1.6449   -0.4722   -0.7571 C   0  0  0  0  0  0  0  0  0  0  0  0
    1.2644   -0.1267    0.0446 N   0  0  0  0  0  0  0  0  0  0  0  0
    2.5132    0.3014   -0.5860 C   0  0  0  0  0  0  0  0  0  0  0  0
    1.0879   -1.5328    0.4126 C   0  0  0  0  0  0  0  0  0  0  0  0
  1  2  2  0
  2  3  1  0
  2  6  1  0
  3  4  1  0
  3  5  1  0
  6  7  1  0
  6  8  1  0
M  END
$$$$
