Clc(c(Cl)cc(Cl)c1)c1Cl
     RDKit          3D

 10 10  0  0  0  0  0  0  0  0999 V2000
    2.6227    1.6872    0.0963 Cl  0  0  0  0  0  0  0  0  0  0  0  0
    1.1405    0.7337    0.0419 C   0  0  0  0  0  0  0  0  0  0  0  0
   -0.1130    1.3735    0.0199 C   0  0  0  0  0  0  0  0  0  0  0  0
   -0.2444    3.1274    0.0457 Cl  0  0  0  0  0  0  0  0  0  0  0  0
   -1.2860    0.6114   -0.0233 C   0  0  0  0  0  0  0  0  0  0  0  0
   -1.2190   -0.7842   -0.0448 C   0  0  0  0  0  0  0  0  0  0  0  0
   -2.6936   -1.7328   -0.0989 Cl  0  0  0  0  0  0  0  0  0  0  0  0
    0.0232   -1.4238   -0.0231 C   0  0  0  0  0  0  0  0  0  0  0  0
    1.2030   -0.6722    0.0201 C   0  0  0  0  0  0  0  0  0  0  0  0
    2.7446   -1.5190    0.0462 Cl  0  0  0  0  0  0  0  0  0  0  0  0
  1  2  1  0
  2  3  2  0
  2  9  1  0
  3  5  1  0
  3  4  1  0
  5  6  2  0
  6  8  1  0
  6  7  1  0
  8  9  2  0
  9 10  1  0
M  END
$$$$
