n(cc(c(n1)O)C)c1S
     RDKit          3D

  9  9  0  0  0  0  0  0  0  0999 V2000
    1.5176   -0.9566   -0.8332 N   0  0  0  0  0  0  0  0  0  0  0  0
    0.2180   -0.7352   -1.1565 C   0  0  0  0  0  0  0  0  0  0  0  0
   -0.6246   -0.0554   -0.2661 C   0  0  0  0  0  0  0  0  0  0  0  0
   -0.0761    0.3807    0.9571 C   0  0  0  0  0  0  0  0  0  0  0  0
    1.2315    0.1327    1.2307 N   0  0  0  0  0  0  0  0  0  0  0  0
   -0.8379    1.0648    1.9052 O   0  0  0  0  0  0  0  0  0  0  0  0
   -2.0638    0.1905   -0.6225 C   0  0  0  0  0  0  0  0  0  0  0  0
    2.0250   -0.5278    0.3497 C   0  0  0  0  0  0  0  0  0  0  0  0
    3.7386   -0.8328    0.7480 S   0  0  0  0  0  0  0  0  0  0  0  0
  1  2  2  0
  1  8  1  0
  2  3  1  0
  3  7  1  0
  3  4  2  0
  4  5  1  0
  4  6  1  0
  5  8  2  0
  8  9  1  0
M  END
$$$$
