NC(OCCCCC)=O
     RDKit          3D

  9  8  0  0  0  0  0  0  0  0999 V2000
    4.3656    0.7157   -0.7228 N   0  0  0  0  0  0  0  0  0  0  0  0
    2.9701    0.7958   -0.4466 C   0  0  0  0  0  0  0  0  0  0  0  0
    2.3866   -0.1278    0.4276 O   0  0  0  0  0  0  0  0  0  0  0  0
    0.9924   -0.1513    0.7287 C   0  0  0  0  0  0  0  0  0  0  0  0
    0.2020   -0.7516   -0.4411 C   0  0  0  0  0  0  0  0  0  0  0  0
   -1.2794   -0.9778   -0.1018 C   0  0  0  0  0  0  0  0  0  0  0  0
   -2.0641    0.3370    0.0155 C   0  0  0  0  0  0  0  0  0  0  0  0
   -3.5518    0.0716    0.2276 C   0  0  0  0  0  0  0  0  0  0  0  0
    2.2777    1.7007   -0.9865 O   0  0  0  0  0  0  0  0  0  0  0  0
  1  2  1  0
  2  9  2  0
  2  3  1  0
  3  4  1  0
  4  5  1  0
  5  6  1  0
  6  7  1  0
  7  8  1  0
M  END
$$$$
