CC(O)=O
     RDKit          3D

  4  3  0  0  0  0  0  0  0  0999 V2000
   -0.8024   -0.2633   -0.0480 C   0  0  0  0  0  0  0  0  0  0  0  0
    0.3944    0.6304   -0.0768 C   0  0  0  0  0  0  0  0  0  0  0  0
    1.6609    0.1178    0.1850 O   0  0  0  0  0  0  0  0  0  0  0  0
    0.2619    1.8547   -0.3389 O   0  0  0  0  0  0  0  0  0  0  0  0
  1  2  1  0
  2  3  1  0
  2  4  2  0
M  END
$$$$
