O=C1CCC2(C)C(CCC3C2CCC4(C)C3CCC4C(CO)=O)=C1
     RDKit          3D

 24 27  0  0  1  0  0  0  0  0999 V2000
    6.2884   -1.2747    0.4240 O   0  0  0  0  0  0  0  0  0  0  0  0
    5.1451   -0.8207    0.1542 C   0  0  0  0  0  0  0  0  0  0  0  0
    4.6910   -0.7678   -1.2748 C   0  0  0  0  0  0  0  0  0  0  0  0
    3.1635   -0.6426   -1.3761 C   0  0  0  0  0  0  0  0  0  0  0  0
    2.5848    0.4548   -0.4315 C   0  0  2  0  0  0  0  0  0  0  0  0
    3.0690    1.8508   -0.8954 C   0  0  0  0  0  0  0  0  0  0  0  0
    3.0887    0.2271    1.0036 C   0  0  0  0  0  0  0  0  0  0  0  0
    2.1637    0.5620    2.1629 C   0  0  0  0  0  0  0  0  0  0  0  0
    0.8023   -0.1735    2.0540 C   0  0  0  0  0  0  0  0  0  0  0  0
    0.5026   -0.6394    0.6106 C   0  0  2  0  0  0  0  0  0  0  0  0
    1.0106    0.4250   -0.4122 C   0  0  2  0  0  0  0  0  0  0  0  0
    0.3045    0.2760   -1.7859 C   0  0  0  0  0  0  0  0  0  0  0  0
   -1.2391    0.4711   -1.6829 C   0  0  0  0  0  0  0  0  0  0  0  0
   -1.8549    0.0070   -0.3180 C   0  0  2  0  0  0  0  0  0  0  0  0
   -2.0728    1.2292    0.6251 C   0  0  0  0  0  0  0  0  0  0  0  0
   -0.9553   -1.0722    0.3065 C   0  0  2  0  0  0  0  0  0  0  0  0
   -1.8001   -1.7574    1.3754 C   0  0  0  0  0  0  0  0  0  0  0  0
   -3.2329   -1.7030    0.8107 C   0  0  0  0  0  0  0  0  0  0  0  0
   -3.1691   -0.8102   -0.4548 C   0  0  1  0  0  0  0  0  0  0  0  0
   -4.4391   -0.0307   -0.7753 C   0  0  0  0  0  0  0  0  0  0  0  0
   -5.2509    0.7202    0.2539 C   0  0  0  0  0  0  0  0  0  0  0  0
   -5.4123    2.0571   -0.1370 O   0  0  0  0  0  0  0  0  0  0  0  0
   -4.8498   -0.0458   -1.9265 O   0  0  0  0  0  0  0  0  0  0  0  0
    4.2876   -0.3290    1.2444 C   0  0  0  0  0  0  0  0  0  0  0  0
  1  2  2  0
  2  3  1  0
  2 24  1  0
  3  4  1  0
  4  5  1  0
  5  6  1  6
  5 11  1  0
  5  7  1  0
  7  8  1  0
  7 24  2  0
  8  9  1  0
 10  9  1  1
 10 16  1  0
 10 11  1  0
 11 12  1  6
 12 13  1  0
 13 14  1  0
 14 15  1  1
 14 16  1  0
 14 19  1  0
 16 17  1  1
 17 18  1  0
 18 19  1  0
 19 20  1  1
 20 21  1  0
 20 23  2  0
 21 22  1  0
M  END
$$$$
