OC(c1ccccc1)=O
     RDKit          3D

  9  9  0  0  0  0  0  0  0  0999 V2000
    2.9050   -1.0592   -0.2627 O   0  0  0  0  0  0  0  0  0  0  0  0
    2.0234   -0.4991    0.6614 C   0  0  0  0  0  0  0  0  0  0  0  0
    0.6338   -0.1327    0.2938 C   0  0  0  0  0  0  0  0  0  0  0  0
   -0.0705    0.8135    1.0626 C   0  0  0  0  0  0  0  0  0  0  0  0
   -1.3820    1.1649    0.7284 C   0  0  0  0  0  0  0  0  0  0  0  0
   -2.0077    0.5722   -0.3700 C   0  0  0  0  0  0  0  0  0  0  0  0
   -1.3247   -0.3765   -1.1337 C   0  0  0  0  0  0  0  0  0  0  0  0
   -0.0123   -0.7313   -0.8050 C   0  0  0  0  0  0  0  0  0  0  0  0
    2.4350   -0.2911    1.8338 O   0  0  0  0  0  0  0  0  0  0  0  0
  1  2  1  0
  2  3  1  0
  2  9  2  0
  3  8  2  0
  3  4  1  0
  4  5  2  0
  5  6  1  0
  6  7  2  0
  7  8  1  0
M  END
$$$$
