
     RDKit          3D

 15 15  0  0  1  0  0  0  0  0999 V2000
   -1.8947   -1.6489    1.4064 O   0  0  0  0  0  0  0  0  0  0  0  0
   -2.0525   -0.4434    1.0788 C   0  0  0  0  0  0  0  0  0  0  0  0
   -2.2024    0.5158    2.0783 O   0  0  0  0  0  0  0  0  0  0  0  0
   -2.0769   -0.0647   -0.3851 C   0  0  1  0  0  0  0  0  0  0  0  0
   -3.3845    0.4781   -0.7588 N   0  0  0  0  0  0  0  0  0  0  0  0
   -0.9689    0.9482   -0.7323 C   0  0  0  0  0  0  0  0  0  0  0  0
    0.4089    0.4005   -0.4481 C   0  0  0  0  0  0  0  0  0  0  0  0
    1.1760    0.9193    0.6050 C   0  0  0  0  0  0  0  0  0  0  0  0
    2.4493    0.4080    0.8721 C   0  0  0  0  0  0  0  0  0  0  0  0
    3.5598    1.2191    2.4788 I   0  0  0  0  0  0  0  0  0  0  0  0
    2.9756   -0.6278    0.0855 C   0  0  0  0  0  0  0  0  0  0  0  0
    4.2495   -1.1172    0.3784 O   0  0  0  0  0  0  0  0  0  0  0  0
    2.2107   -1.1490   -0.9781 C   0  0  0  0  0  0  0  0  0  0  0  0
    2.9107   -2.7103   -2.2285 I   0  0  0  0  0  0  0  0  0  0  0  0
    0.9367   -0.6316   -1.2380 C   0  0  0  0  0  0  0  0  0  0  0  0
  1  2  2  0
  4  2  1  1
  2  3  1  0
  4  6  1  0
  4  5  1  0
  6  7  1  0
  7 15  2  0
  7  8  1  0
  8  9  2  0
  9 11  1  0
  9 10  1  0
 11 13  2  0
 11 12  1  0
 13 15  1  0
 13 14  1  0
M  END
$$$$
