O=C(NC=C1)NC1=O
     RDKit          3D

  8  8  0  0  0  0  0  0  0  0999 V2000
   -0.1251    2.6154   -0.0644 O   0  0  0  0  0  0  0  0  0  0  0  0
   -0.0594    1.3572   -0.0332 C   0  0  0  0  0  0  0  0  0  0  0  0
    1.1533    0.7410    0.0280 N   0  0  0  0  0  0  0  0  0  0  0  0
    1.2433   -0.6149    0.0624 C   0  0  0  0  0  0  0  0  0  0  0  0
    0.0863   -1.3913    0.0350 C   0  0  0  0  0  0  0  0  0  0  0  0
   -1.2013    0.6153   -0.0608 N   0  0  0  0  0  0  0  0  0  0  0  0
   -1.1483   -0.7445   -0.0278 C   0  0  0  0  0  0  0  0  0  0  0  0
   -2.2118   -1.4195   -0.0538 O   0  0  0  0  0  0  0  0  0  0  0  0
  1  2  2  0
  2  3  1  0
  2  6  1  0
  3  4  1  0
  4  5  2  0
  5  7  1  0
  6  7  1  0
  7  8  2  0
M  END
$$$$
