O=C1C=CC2(C)C(CCC3C2(F)C(O)CC4(C)C3CC(OC(C)=O)C4(O)C(COC(C)=O)=O)=C1
     RDKit          3D

 34 37  0  0  1  0  0  0  0  0999 V2000
    6.6663    1.9638   -1.7495 O   0  0  0  0  0  0  0  0  0  0  0  0
    5.5747    1.6716   -1.1887 C   0  0  0  0  0  0  0  0  0  0  0  0
    4.5160    2.6782   -1.0417 C   0  0  0  0  0  0  0  0  0  0  0  0
    3.4241    2.4153   -0.3113 C   0  0  0  0  0  0  0  0  0  0  0  0
    3.3184    1.1604    0.5607 C   0  0  2  0  0  0  0  0  0  0  0  0
    3.8850    1.5600    1.9458 C   0  0  0  0  0  0  0  0  0  0  0  0
    4.2215    0.0353    0.0002 C   0  0  0  0  0  0  0  0  0  0  0  0
    3.8019   -1.3992    0.2052 C   0  0  0  0  0  0  0  0  0  0  0  0
    2.4137   -1.6623   -0.4220 C   0  0  0  0  0  0  0  0  0  0  0  0
    1.5099   -0.3939   -0.4704 C   0  0  2  0  0  0  0  0  0  0  0  0
    1.8302    0.5920    0.7086 C   0  0  1  0  0  0  0  0  0  0  0  0
    1.8279   -0.1448    1.8849 F   0  0  0  0  0  0  0  0  0  0  0  0
    0.6789    1.6418    0.9047 C   0  0  1  0  0  0  0  0  0  0  0  0
    0.5772    2.5770   -0.1450 O   0  0  0  0  0  0  0  0  0  0  0  0
   -0.7155    0.9907    1.1731 C   0  0  0  0  0  0  0  0  0  0  0  0
   -0.9000   -0.4701    0.6124 C   0  0  2  0  0  0  0  0  0  0  0  0
   -0.5478   -1.5269    1.7304 C   0  0  0  0  0  0  0  0  0  0  0  0
   -0.0254   -0.6579   -0.6409 C   0  0  2  0  0  0  0  0  0  0  0  0
   -0.5279   -1.9477   -1.2834 C   0  0  0  0  0  0  0  0  0  0  0  0
   -2.0427   -1.9959   -0.9552 C   0  0  1  0  0  0  0  0  0  0  0  0
   -2.3794   -3.2553   -0.3613 O   0  0  0  0  0  0  0  0  0  0  0  0
   -2.3268   -4.4749   -1.0429 C   0  0  0  0  0  0  0  0  0  0  0  0
   -2.5324   -5.7408   -0.2825 C   0  0  0  0  0  0  0  0  0  0  0  0
   -2.1541   -4.5091   -2.2900 O   0  0  0  0  0  0  0  0  0  0  0  0
   -2.3302   -0.8122    0.0427 C   0  0  1  0  0  0  0  0  0  0  0  0
   -3.1822   -1.2216    1.0942 O   0  0  0  0  0  0  0  0  0  0  0  0
   -2.9979    0.3605   -0.7001 C   0  0  0  0  0  0  0  0  0  0  0  0
   -4.0789    1.1866   -0.0496 C   0  0  0  0  0  0  0  0  0  0  0  0
   -3.9859    2.5379   -0.4840 O   0  0  0  0  0  0  0  0  0  0  0  0
   -4.8365    3.5428   -0.0113 C   0  0  0  0  0  0  0  0  0  0  0  0
   -4.7984    4.9001   -0.6346 C   0  0  0  0  0  0  0  0  0  0  0  0
   -5.6546    3.3074    0.9238 O   0  0  0  0  0  0  0  0  0  0  0  0
   -2.6811    0.6219   -1.8535 O   0  0  0  0  0  0  0  0  0  0  0  0
    5.3245    0.3075   -0.7230 C   0  0  0  0  0  0  0  0  0  0  0  0
  1  2  2  0
  2  3  1  0
  2 34  1  0
  3  4  2  0
  4  5  1  0
  5  6  1  1
  5  7  1  0
  5 11  1  0
  7  8  1  0
  7 34  2  0
  8  9  1  0
 10  9  1  1
 10 18  1  0
 10 11  1  0
 11 13  1  0
 11 12  1  1
 13 15  1  0
 13 14  1  6
 15 16  1  0
 16 17  1  1
 16 18  1  0
 16 25  1  0
 18 19  1  1
 19 20  1  0
 20 25  1  0
 20 21  1  1
 21 22  1  0
 22 23  1  0
 22 24  2  0
 25 27  1  6
 25 26  1  0
 27 28  1  0
 27 33  2  0
 28 29  1  0
 29 30  1  0
 30 31  1  0
 30 32  2  0
M  END
$$$$
