Oc1ccccc1C(O)=O
     RDKit          3D

 10 10  0  0  0  0  0  0  0  0999 V2000
    0.7002    2.3496    0.1953 O   0  0  0  0  0  0  0  0  0  0  0  0
   -0.0348    1.1702    0.0557 C   0  0  0  0  0  0  0  0  0  0  0  0
   -1.4300    1.2527    0.1472 C   0  0  0  0  0  0  0  0  0  0  0  0
   -2.2156    0.1011    0.0752 C   0  0  0  0  0  0  0  0  0  0  0  0
   -1.6129   -1.1452   -0.0922 C   0  0  0  0  0  0  0  0  0  0  0  0
   -0.2238   -1.2425   -0.2014 C   0  0  0  0  0  0  0  0  0  0  0  0
    0.5819   -0.0911   -0.1418 C   0  0  0  0  0  0  0  0  0  0  0  0
    2.0428   -0.2349   -0.3273 C   0  0  0  0  0  0  0  0  0  0  0  0
    2.7360   -1.2926    0.2573 O   0  0  0  0  0  0  0  0  0  0  0  0
    2.6727    0.5793   -1.0525 O   0  0  0  0  0  0  0  0  0  0  0  0
  1  2  1  0
  2  3  2  0
  2  7  1  0
  3  4  1  0
  4  5  2  0
  5  6  1  0
  6  7  2  0
  7  8  1  0
  8  9  1  0
  8 10  2  0
M  END
$$$$
