O=C(C=CC=C1)N1C
     RDKit          3D

  8  8  0  0  0  0  0  0  0  0999 V2000
    0.6038    2.2908    0.0316 O   0  0  0  0  0  0  0  0  0  0  0  0
    0.0013    1.1827    0.0006 C   0  0  0  0  0  0  0  0  0  0  0  0
   -1.3961    1.1696   -0.0703 C   0  0  0  0  0  0  0  0  0  0  0  0
   -2.0713   -0.0487   -0.1051 C   0  0  0  0  0  0  0  0  0  0  0  0
   -1.3496   -1.2393   -0.0690 C   0  0  0  0  0  0  0  0  0  0  0  0
    0.0444   -1.1954    0.0017 C   0  0  0  0  0  0  0  0  0  0  0  0
    0.7038    0.0040    0.0357 N   0  0  0  0  0  0  0  0  0  0  0  0
    2.1699    0.0251    0.1101 C   0  0  0  0  0  0  0  0  0  0  0  0
  1  2  2  0
  2  3  1  0
  2  7  1  0
  3  4  2  0
  4  5  1  0
  5  6  2  0
  6  7  1  0
  7  8  1  0
M  END
$$$$
