CSc2c1nccnc1ncn2
     RDKit          3D

 12 13  0  0  0  0  0  0  0  0999 V2000
    2.9761    0.5106   -0.0234 C   0  0  0  0  0  0  0  0  0  0  0  0
    2.0911    0.1879   -1.5800 S   0  0  0  0  0  0  0  0  0  0  0  0
    0.7378   -0.6681   -0.7689 C   0  0  0  0  0  0  0  0  0  0  0  0
   -0.3998    0.0199   -0.3329 C   0  0  0  0  0  0  0  0  0  0  0  0
   -0.5376    1.3631   -0.4958 N   0  0  0  0  0  0  0  0  0  0  0  0
   -1.6524    2.0083   -0.0602 C   0  0  0  0  0  0  0  0  0  0  0  0
   -2.6719    1.2817    0.5640 C   0  0  0  0  0  0  0  0  0  0  0  0
   -2.5366   -0.0616    0.7280 N   0  0  0  0  0  0  0  0  0  0  0  0
   -1.4242   -0.7096    0.2941 C   0  0  0  0  0  0  0  0  0  0  0  0
   -1.2976   -2.0506    0.4617 N   0  0  0  0  0  0  0  0  0  0  0  0
   -0.1854   -2.7010    0.0279 C   0  0  0  0  0  0  0  0  0  0  0  0
    0.8175   -2.0124   -0.5806 N   0  0  0  0  0  0  0  0  0  0  0  0
  1  2  1  0
  2  3  1  0
  3  4  2  0
  3 12  1  0
  4  9  1  0
  4  5  1  0
  5  6  2  0
  6  7  1  0
  7  8  2  0
  8  9  1  0
  9 10  2  0
 10 11  1  0
 11 12  2  0
M  END
$$$$
