NC(CC(N)C(O)=O)=O
     RDKit          3D

  9  8  0  0  1  0  0  0  0  0999 V2000
    1.5646    1.5420   -0.5317 N   0  0  0  0  0  0  0  0  0  0  0  0
    1.4360    0.2107   -0.0323 C   0  0  0  0  0  0  0  0  0  0  0  0
    0.5512   -0.7836   -0.7304 C   0  0  0  0  0  0  0  0  0  0  0  0
   -0.8914   -0.8475   -0.1769 C   0  0  1  0  0  0  0  0  0  0  0  0
   -0.9403   -1.2996    1.2165 N   0  0  0  0  0  0  0  0  0  0  0  0
   -1.6383    0.4543   -0.3434 C   0  0  0  0  0  0  0  0  0  0  0  0
   -1.3717    1.5613    0.4603 O   0  0  0  0  0  0  0  0  0  0  0  0
   -2.5369    0.5435   -1.2212 O   0  0  0  0  0  0  0  0  0  0  0  0
    2.0672   -0.1299    1.0037 O   0  0  0  0  0  0  0  0  0  0  0  0
  1  2  1  0
  2  3  1  0
  2  9  2  0
  4  3  1  1
  4  6  1  0
  4  5  1  0
  6  7  1  0
  6  8  2  0
M  END
$$$$
