O=C(c1ccc(N)cc1)CC
     RDKit          3D

 11 11  0  0  0  0  0  0  0  0999 V2000
   -1.7951   -1.5815   -1.0819 O   0  0  0  0  0  0  0  0  0  0  0  0
   -1.4510   -0.5994   -0.3668 C   0  0  0  0  0  0  0  0  0  0  0  0
   -0.0028   -0.3099   -0.1794 C   0  0  0  0  0  0  0  0  0  0  0  0
    0.4391    0.6700    0.7324 C   0  0  0  0  0  0  0  0  0  0  0  0
    1.8038    0.9266    0.8951 C   0  0  0  0  0  0  0  0  0  0  0  0
    2.7517    0.2110    0.1539 C   0  0  0  0  0  0  0  0  0  0  0  0
    4.1470    0.4753    0.3221 N   0  0  0  0  0  0  0  0  0  0  0  0
    2.3232   -0.7661   -0.7525 C   0  0  0  0  0  0  0  0  0  0  0  0
    0.9596   -1.0257   -0.9177 C   0  0  0  0  0  0  0  0  0  0  0  0
   -2.5141    0.2427    0.3004 C   0  0  0  0  0  0  0  0  0  0  0  0
   -3.9295   -0.0927   -0.1698 C   0  0  0  0  0  0  0  0  0  0  0  0
  1  2  2  0
  2 10  1  0
  2  3  1  0
  3  9  2  0
  3  4  1  0
  4  5  2  0
  5  6  1  0
  6  8  2  0
  6  7  1  0
  8  9  1  0
 10 11  1  0
M  END
$$$$
