n1c(c[nH]c1)CC(N)C(O)=O
     RDKit          3D

 11 11  0  0  1  0  0  0  0  0999 V2000
    1.2503    1.3615    0.6812 N   0  0  0  0  0  0  0  0  0  0  0  0
    1.0374    0.0620    0.3917 C   0  0  0  0  0  0  0  0  0  0  0  0
    2.0592   -0.4163   -0.3977 C   0  0  0  0  0  0  0  0  0  0  0  0
    2.9293    0.5851   -0.5941 N   0  0  0  0  0  0  0  0  0  0  0  0
    2.4189    1.6420    0.0662 C   0  0  0  0  0  0  0  0  0  0  0  0
   -0.1824   -0.7027    0.8127 C   0  0  0  0  0  0  0  0  0  0  0  0
   -1.2386   -0.7487   -0.3068 C   0  0  1  0  0  0  0  0  0  0  0  0
   -2.3605   -1.5936    0.1028 N   0  0  0  0  0  0  0  0  0  0  0  0
   -1.7443    0.6334   -0.6198 C   0  0  0  0  0  0  0  0  0  0  0  0
   -2.4019    1.3737    0.3585 O   0  0  0  0  0  0  0  0  0  0  0  0
   -1.5746    1.1222   -1.7689 O   0  0  0  0  0  0  0  0  0  0  0  0
  1  2  1  0
  1  5  2  0
  2  6  1  0
  2  3  2  0
  3  4  1  0
  4  5  1  0
  7  6  1  1
  7  9  1  0
  7  8  1  0
  9 10  1  0
  9 11  2  0
M  END
$$$$
