CCCCO
     RDKit          3D

  5  4  0  0  0  0  0  0  0  0999 V2000
   -2.1479   -0.0690    0.1020 C   0  0  0  0  0  0  0  0  0  0  0  0
   -0.7493   -0.3574   -0.4358 C   0  0  0  0  0  0  0  0  0  0  0  0
    0.3297    0.1628    0.5206 C   0  0  0  0  0  0  0  0  0  0  0  0
    1.7321   -0.1266   -0.0205 C   0  0  0  0  0  0  0  0  0  0  0  0
    2.7031    0.3287    0.8819 O   0  0  0  0  0  0  0  0  0  0  0  0
  1  2  1  0
  2  3  1  0
  3  4  1  0
  4  5  1  0
M  END
$$$$
