CCCCCO
     RDKit          3D

  6  5  0  0  0  0  0  0  0  0999 V2000
   -2.6636   -0.2685    0.5318 C   0  0  0  0  0  0  0  0  0  0  0  0
   -1.4990    0.5521   -0.0150 C   0  0  0  0  0  0  0  0  0  0  0  0
   -0.1853   -0.2347    0.0561 C   0  0  0  0  0  0  0  0  0  0  0  0
    0.9825    0.5952   -0.4941 C   0  0  0  0  0  0  0  0  0  0  0  0
    2.2990   -0.1823   -0.4542 C   0  0  0  0  0  0  0  0  0  0  0  0
    2.6694   -0.4365    0.8728 O   0  0  0  0  0  0  0  0  0  0  0  0
  1  2  1  0
  2  3  1  0
  3  4  1  0
  4  5  1  0
  5  6  1  0
M  END
$$$$
