c1ccccc1
     RDKit          3D

  6  6  0  0  0  0  0  0  0  0999 V2000
    1.3840    0.2044    0.0097 C   0  0  0  0  0  0  0  0  0  0  0  0
    0.8686   -1.0956    0.0493 C   0  0  0  0  0  0  0  0  0  0  0  0
   -0.5154   -1.3001    0.0396 C   0  0  0  0  0  0  0  0  0  0  0  0
   -1.3840   -0.2044   -0.0097 C   0  0  0  0  0  0  0  0  0  0  0  0
   -0.8686    1.0956   -0.0493 C   0  0  0  0  0  0  0  0  0  0  0  0
    0.5154    1.3001   -0.0396 C   0  0  0  0  0  0  0  0  0  0  0  0
  1  6  2  0
  1  2  1  0
  2  3  2  0
  3  4  1  0
  4  5  2  0
  5  6  1  0
M  END
$$$$
