NC(C(O)=O)C(O)C
     RDKit          3D

  8  7  0  0  1  0  0  0  0  0999 V2000
    0.3041    1.7604    0.1092 N   0  0  0  0  0  0  0  0  0  0  0  0
    0.5027    0.3834   -0.3599 C   0  0  1  0  0  0  0  0  0  0  0  0
    1.7981   -0.2050    0.1507 C   0  0  0  0  0  0  0  0  0  0  0  0
    2.2060   -1.4562   -0.3021 O   0  0  0  0  0  0  0  0  0  0  0  0
    2.5181    0.4237    0.9734 O   0  0  0  0  0  0  0  0  0  0  0  0
   -0.6937   -0.5085    0.0384 C   0  0  1  0  0  0  0  0  0  0  0  0
   -0.8177   -0.5495    1.4375 O   0  0  0  0  0  0  0  0  0  0  0  0
   -2.0000   -0.0024   -0.5849 C   0  0  0  0  0  0  0  0  0  0  0  0
  2  1  1  1
  2  6  1  0
  2  3  1  0
  3  4  1  0
  3  5  2  0
  6  8  1  6
  6  7  1  0
M  END
$$$$
