O=C2c3c(ccc(O)c3O)C(c1ccccc12)=O
     RDKit          3D

 18 20  0  0  0  0  0  0  0  0999 V2000
    0.2962    2.5401    0.3552 O   0  0  0  0  0  0  0  0  0  0  0  0
    0.2874    1.2912    0.1875 C   0  0  0  0  0  0  0  0  0  0  0  0
   -0.9911    0.5249    0.2407 C   0  0  0  0  0  0  0  0  0  0  0  0
   -0.9272   -0.8762    0.4423 C   0  0  0  0  0  0  0  0  0  0  0  0
   -2.1093   -1.6072    0.6450 C   0  0  0  0  0  0  0  0  0  0  0  0
   -3.3461   -0.9695    0.6367 C   0  0  0  0  0  0  0  0  0  0  0  0
   -3.4294    0.4005    0.3814 C   0  0  0  0  0  0  0  0  0  0  0  0
   -4.6734    1.0287    0.3358 O   0  0  0  0  0  0  0  0  0  0  0  0
   -2.2674    1.1493    0.1503 C   0  0  0  0  0  0  0  0  0  0  0  0
   -2.4316    2.4924   -0.1999 O   0  0  0  0  0  0  0  0  0  0  0  0
    0.3808   -1.5762    0.4331 C   0  0  0  0  0  0  0  0  0  0  0  0
    1.6239   -0.8237    0.1589 C   0  0  0  0  0  0  0  0  0  0  0  0
    2.8562   -1.4911    0.0325 C   0  0  0  0  0  0  0  0  0  0  0  0
    4.0265   -0.7715   -0.2178 C   0  0  0  0  0  0  0  0  0  0  0  0
    3.9809    0.6173   -0.3412 C   0  0  0  0  0  0  0  0  0  0  0  0
    2.7647    1.2920   -0.2147 C   0  0  0  0  0  0  0  0  0  0  0  0
    1.5770    0.5790    0.0328 C   0  0  0  0  0  0  0  0  0  0  0  0
    0.4335   -2.8191    0.6460 O   0  0  0  0  0  0  0  0  0  0  0  0
  1  2  2  0
  2 17  1  0
  2  3  1  0
  3  4  2  0
  3  9  1  0
  4 11  1  0
  4  5  1  0
  5  6  2  0
  6  7  1  0
  7  9  2  0
  7  8  1  0
  9 10  1  0
 11 12  1  0
 11 18  2  0
 12 17  2  0
 12 13  1  0
 13 14  2  0
 14 15  1  0
 15 16  2  0
 16 17  1  0
M  END
$$$$
