ClC(Cl)(Cl)C(c2ccc(OC)cc2)c1ccc(OC)cc1
     RDKit          3D

 21 22  0  0  0  0  0  0  0  0999 V2000
   -1.2125   -3.7133    1.7992 Cl  0  0  0  0  0  0  0  0  0  0  0  0
    0.2802   -2.8719    1.2921 C   0  0  0  0  0  0  0  0  0  0  0  0
    0.8651   -3.6242   -0.2207 Cl  0  0  0  0  0  0  0  0  0  0  0  0
    1.5137   -3.2126    2.5390 Cl  0  0  0  0  0  0  0  0  0  0  0  0
    0.0464   -1.3317    1.2003 C   0  0  0  0  0  0  0  0  0  0  0  0
   -1.2474   -0.8865    0.5173 C   0  0  0  0  0  0  0  0  0  0  0  0
   -1.7015   -1.4458   -0.6933 C   0  0  0  0  0  0  0  0  0  0  0  0
   -2.8821   -0.9940   -1.2892 C   0  0  0  0  0  0  0  0  0  0  0  0
   -3.6328    0.0271   -0.7008 C   0  0  0  0  0  0  0  0  0  0  0  0
   -4.8103    0.4432   -1.3398 O   0  0  0  0  0  0  0  0  0  0  0  0
   -5.6687    1.4701   -0.8538 C   0  0  0  0  0  0  0  0  0  0  0  0
   -3.1837    0.5994    0.5019 C   0  0  0  0  0  0  0  0  0  0  0  0
   -2.0037    0.1488    1.0996 C   0  0  0  0  0  0  0  0  0  0  0  0
    1.2511   -0.5694    0.6609 C   0  0  0  0  0  0  0  0  0  0  0  0
    1.5345   -0.5097   -0.7171 C   0  0  0  0  0  0  0  0  0  0  0  0
    2.6423    0.2011   -1.1860 C   0  0  0  0  0  0  0  0  0  0  0  0
    3.4888    0.8693   -0.2966 C   0  0  0  0  0  0  0  0  0  0  0  0
    4.5876    1.5678   -0.8186 O   0  0  0  0  0  0  0  0  0  0  0  0
    5.5286    2.2902   -0.0311 C   0  0  0  0  0  0  0  0  0  0  0  0
    3.2111    0.8192    1.0811 C   0  0  0  0  0  0  0  0  0  0  0  0
    2.1033    0.1090    1.5520 C   0  0  0  0  0  0  0  0  0  0  0  0
  1  2  1  0
  2  5  1  0
  2  4  1  0
  2  3  1  0
  5 14  1  0
  5  6  1  0
  6 13  1  0
  6  7  2  0
  7  8  1  0
  8  9  2  0
  9 12  1  0
  9 10  1  0
 10 11  1  0
 12 13  2  0
 14 21  1  0
 14 15  2  0
 15 16  1  0
 16 17  2  0
 17 20  1  0
 17 18  1  0
 18 19  1  0
 20 21  2  0
M  END
$$$$
