O=C(O)C(N)Cc1c[nH]c2c1cccc2
     RDKit          3D

 15 16  0  0  1  0  0  0  0  0999 V2000
   -2.6792    0.3591    2.5349 O   0  0  0  0  0  0  0  0  0  0  0  0
   -2.8558    0.5363    1.3005 C   0  0  0  0  0  0  0  0  0  0  0  0
   -3.3009    1.7843    0.8633 O   0  0  0  0  0  0  0  0  0  0  0  0
   -2.5957   -0.6134    0.3493 C   0  0  1  0  0  0  0  0  0  0  0  0
   -2.9784   -0.2879   -1.0270 N   0  0  0  0  0  0  0  0  0  0  0  0
   -1.1256   -1.0848    0.4212 C   0  0  0  0  0  0  0  0  0  0  0  0
   -0.0839   -0.0916   -0.0395 C   0  0  0  0  0  0  0  0  0  0  0  0
   -0.2526    1.1717   -0.6127 C   0  0  0  0  0  0  0  0  0  0  0  0
    0.9465    1.7312   -0.8926 N   0  0  0  0  0  0  0  0  0  0  0  0
    1.8727    0.8385   -0.5078 C   0  0  0  0  0  0  0  0  0  0  0  0
    1.2839   -0.2837    0.0141 C   0  0  0  0  0  0  0  0  0  0  0  0
    2.0412   -1.3595    0.4799 C   0  0  0  0  0  0  0  0  0  0  0  0
    3.4423   -1.2602    0.4001 C   0  0  0  0  0  0  0  0  0  0  0  0
    4.0481   -0.1030   -0.1375 C   0  0  0  0  0  0  0  0  0  0  0  0
    3.2582    0.9651   -0.6004 C   0  0  0  0  0  0  0  0  0  0  0  0
  1  2  2  0
  4  2  1  1
  2  3  1  0
  4  6  1  0
  4  5  1  0
  6  7  1  0
  7 11  1  0
  7  8  2  0
  8  9  1  0
  9 10  1  0
 10 15  1  0
 10 11  2  0
 11 12  1  0
 12 13  2  0
 13 14  1  0
 14 15  2  0
M  END
$$$$
