CC(CC(C(C)(C)C)=O)=O
     RDKit          3D

 10  9  0  0  0  0  0  0  0  0999 V2000
    3.0641   -0.4529   -0.5580 C   0  0  0  0  0  0  0  0  0  0  0  0
    2.3564    0.6460    0.1786 C   0  0  0  0  0  0  0  0  0  0  0  0
    1.0651    1.2287   -0.3317 C   0  0  0  0  0  0  0  0  0  0  0  0
   -0.0695    0.9036    0.6107 C   0  0  0  0  0  0  0  0  0  0  0  0
   -1.1828   -0.0771    0.2320 C   0  0  0  0  0  0  0  0  0  0  0  0
   -2.1145   -0.3379    1.4381 C   0  0  0  0  0  0  0  0  0  0  0  0
   -0.5735   -1.4241   -0.2080 C   0  0  0  0  0  0  0  0  0  0  0  0
   -2.0227    0.5142   -0.9168 C   0  0  0  0  0  0  0  0  0  0  0  0
   -0.0962    1.4718    1.6943 O   0  0  0  0  0  0  0  0  0  0  0  0
    2.8479    1.0816    1.2090 O   0  0  0  0  0  0  0  0  0  0  0  0
  1  2  1  0
  2  3  1  0
  2 10  2  0
  3  4  1  0
  4  5  1  0
  4  9  2  0
  5  6  1  0
  5  7  1  0
  5  8  1  0
M  END
$$$$
