CCBr
     RDKit          3D

  3  2  0  0  0  0  0  0  0  0999 V2000
   -0.7908    0.1204   -0.0513 C   0  0  0  0  0  0  0  0  0  0  0  0
    0.6767   -0.2757   -0.0108 C   0  0  0  0  0  0  0  0  0  0  0  0
    1.7582    1.2172    0.5849 Br  0  0  0  0  0  0  0  0  0  0  0  0
  1  2  1  0
  2  3  1  0
M  END
$$$$
