
     RDKit          3D

 18 19  0  0  0  0  0  0  0  0999 V2000
   -0.7081    2.3458    1.4614 Cl  0  0  0  0  0  0  0  0  0  0  0  0
   -1.4934    0.9412    0.7444 C   0  0  0  0  0  0  0  0  0  0  0  0
   -0.7600   -0.0406    0.0483 C   0  0  0  0  0  0  0  0  0  0  0  0
    0.7086    0.0786   -0.0729 C   0  0  0  0  0  0  0  0  0  0  0  0
    1.2925    0.3808   -1.3115 C   0  0  0  0  0  0  0  0  0  0  0  0
    2.6804    0.4946   -1.4248 C   0  0  0  0  0  0  0  0  0  0  0  0
    3.4978    0.3092   -0.3039 C   0  0  0  0  0  0  0  0  0  0  0  0
    5.2401    0.4612   -0.4858 Cl  0  0  0  0  0  0  0  0  0  0  0  0
    2.9181    0.0070    0.9404 C   0  0  0  0  0  0  0  0  0  0  0  0
    3.9084   -0.2332    2.3733 Cl  0  0  0  0  0  0  0  0  0  0  0  0
    1.5273   -0.1073    1.0511 C   0  0  0  0  0  0  0  0  0  0  0  0
   -1.4388   -1.1358   -0.5303 C   0  0  0  0  0  0  0  0  0  0  0  0
   -0.5367   -2.3988   -1.3760 Cl  0  0  0  0  0  0  0  0  0  0  0  0
   -2.8382   -1.2388   -0.4111 C   0  0  0  0  0  0  0  0  0  0  0  0
   -3.6944   -2.6049   -1.1283 Cl  0  0  0  0  0  0  0  0  0  0  0  0
   -3.5550   -0.2515    0.2848 C   0  0  0  0  0  0  0  0  0  0  0  0
   -5.3037   -0.3407    0.4570 Cl  0  0  0  0  0  0  0  0  0  0  0  0
   -2.8808    0.8287    0.8569 C   0  0  0  0  0  0  0  0  0  0  0  0
  1  2  1  0
  2 18  2  0
  2  3  1  0
  3  4  1  0
  3 12  2  0
  4  5  2  0
  4 11  1  0
  5  6  1  0
  6  7  2  0
  7  9  1  0
  7  8  1  0
  9 10  1  0
  9 11  2  0
 12 14  1  0
 12 13  1  0
 14 16  2  0
 14 15  1  0
 16 18  1  0
 16 17  1  0
M  END
$$$$
