CC(Cl)C
     RDKit          3D

  4  3  0  0  0  0  0  0  0  0999 V2000
    1.2807   -0.0185   -0.1533 C   0  0  0  0  0  0  0  0  0  0  0  0
   -0.0553   -0.0601    0.5860 C   0  0  0  0  0  0  0  0  0  0  0  0
   -0.2645   -1.6533    1.3629 Cl  0  0  0  0  0  0  0  0  0  0  0  0
   -1.2196    0.2059   -0.3663 C   0  0  0  0  0  0  0  0  0  0  0  0
  1  2  1  0
  2  4  1  0
  2  3  1  0
M  END
$$$$
