C(Br)(Br)Br
     RDKit          3D

  4  3  0  0  0  0  0  0  0  0999 V2000
   -0.0011    0.0051    0.1647 C   0  0  0  0  0  0  0  0  0  0  0  0
   -1.3996   -1.1786   -0.4526 Br  0  0  0  0  0  0  0  0  0  0  0  0
   -0.3036    1.7811   -0.5370 Br  0  0  0  0  0  0  0  0  0  0  0  0
    1.7126   -0.6470   -0.4487 Br  0  0  0  0  0  0  0  0  0  0  0  0
  1  2  1  0
  1  3  1  0
  1  4  1  0
M  END
$$$$
