CC1CO1
     RDKit          3D

  4  4  0  0  1  0  0  0  0  0999 V2000
    1.1838    0.0640    0.3564 C   0  0  0  0  0  0  0  0  0  0  0  0
   -0.0132   -0.2501   -0.5351 C   0  0  2  0  0  0  0  0  0  0  0  0
   -1.3297    0.2420   -0.0732 C   0  0  0  0  0  0  0  0  0  0  0  0
   -0.9344   -1.1001    0.1053 O   0  0  0  0  0  0  0  0  0  0  0  0
  2  1  1  1
  2  3  1  0
  2  4  1  0
  3  4  1  0
M  END
$$$$
