CC(C)(C)CO
     RDKit          3D

  6  5  0  0  0  0  0  0  0  0999 V2000
   -0.1038   -1.3009   -0.8834 C   0  0  0  0  0  0  0  0  0  0  0  0
   -0.1485   -0.0863    0.0656 C   0  0  0  0  0  0  0  0  0  0  0  0
   -0.5459   -0.5642    1.4762 C   0  0  0  0  0  0  0  0  0  0  0  0
   -1.1996    0.9231   -0.4386 C   0  0  0  0  0  0  0  0  0  0  0  0
    1.2432    0.5858    0.1337 C   0  0  0  0  0  0  0  0  0  0  0  0
    1.6431    1.0362   -1.1330 O   0  0  0  0  0  0  0  0  0  0  0  0
  1  2  1  0
  2  3  1  0
  2  4  1  0
  2  5  1  0
  5  6  1  0
M  END
$$$$
