CN(C2C1CC5C(C(c4c(C5(O)C)cccc4O)=O)=C(C1(C(C(C(NCN3CCCC3)=O)=C2O)=O)O)O)C
     RDKit          3D

 38 42  0  0  1  0  0  0  0  0999 V2000
    0.4098   -2.1112   -3.4768 C   0  0  0  0  0  0  0  0  0  0  0  0
   -0.5568   -2.5825   -2.4664 N   0  0  0  0  0  0  0  0  0  0  0  0
   -0.2460   -2.1781   -1.0657 C   0  0  2  0  0  0  0  0  0  0  0  0
   -0.8423   -0.7683   -0.7942 C   0  0  1  0  0  0  0  0  0  0  0  0
   -2.3774   -0.7002   -0.8917 C   0  0  0  0  0  0  0  0  0  0  0  0
   -2.7872    0.7906   -0.8303 C   0  0  2  0  0  0  0  0  0  0  0  0
   -2.2517    1.4293    0.4519 C   0  0  0  0  0  0  0  0  0  0  0  0
   -3.1867    2.2403    1.2534 C   0  0  0  0  0  0  0  0  0  0  0  0
   -4.5829    1.7763    1.3304 C   0  0  0  0  0  0  0  0  0  0  0  0
   -5.1116    1.0663    0.2268 C   0  0  0  0  0  0  0  0  0  0  0  0
   -4.3205    1.0939   -1.0886 C   0  0  1  0  0  0  0  0  0  0  0  0
   -4.4379    2.4149   -1.5731 O   0  0  0  0  0  0  0  0  0  0  0  0
   -4.9141    0.1454   -2.1631 C   0  0  0  0  0  0  0  0  0  0  0  0
   -6.4249    0.5526    0.3221 C   0  0  0  0  0  0  0  0  0  0  0  0
   -7.1715    0.7167    1.4898 C   0  0  0  0  0  0  0  0  0  0  0  0
   -6.6409    1.4155    2.5707 C   0  0  0  0  0  0  0  0  0  0  0  0
   -5.3474    1.9447    2.5028 C   0  0  0  0  0  0  0  0  0  0  0  0
   -4.8167    2.6179    3.6038 O   0  0  0  0  0  0  0  0  0  0  0  0
   -2.7944    3.2509    1.8990 O   0  0  0  0  0  0  0  0  0  0  0  0
   -1.0654    1.0588    0.9951 C   0  0  0  0  0  0  0  0  0  0  0  0
   -0.3447   -0.2205    0.5629 C   0  0  2  0  0  0  0  0  0  0  0  0
    1.1401   -0.0486    0.3746 C   0  0  0  0  0  0  0  0  0  0  0  0
    1.9121   -1.2093   -0.1395 C   0  0  0  0  0  0  0  0  0  0  0  0
    3.3831   -1.2029    0.0232 C   0  0  0  0  0  0  0  0  0  0  0  0
    3.9668   -0.7515    1.2553 N   0  0  0  0  0  0  0  0  0  0  0  0
    5.3946   -0.4766    1.4136 C   0  0  0  0  0  0  0  0  0  0  0  0
    5.5962    0.9510    1.7401 N   0  0  0  0  0  0  0  0  0  0  0  0
    5.3529    1.8080    0.5699 C   0  0  0  0  0  0  0  0  0  0  0  0
    6.6793    2.0118   -0.1465 C   0  0  0  0  0  0  0  0  0  0  0  0
    7.7471    1.6349    0.8641 C   0  0  0  0  0  0  0  0  0  0  0  0
    6.9919    1.2146    2.1168 C   0  0  0  0  0  0  0  0  0  0  0  0
    4.1207   -1.5577   -0.9367 O   0  0  0  0  0  0  0  0  0  0  0  0
    1.2563   -2.2470   -0.7322 C   0  0  0  0  0  0  0  0  0  0  0  0
    1.9143   -3.4491   -1.0128 O   0  0  0  0  0  0  0  0  0  0  0  0
    1.7114    1.0543    0.5973 O   0  0  0  0  0  0  0  0  0  0  0  0
   -0.5222   -1.1834    1.5794 O   0  0  0  0  0  0  0  0  0  0  0  0
   -0.5968    1.7282    2.1295 O   0  0  0  0  0  0  0  0  0  0  0  0
   -0.7892   -4.0299   -2.5992 C   0  0  0  0  0  0  0  0  0  0  0  0
  1  2  1  0
  2 38  1  0
  3  2  1  6
  3  4  1  0
  3 33  1  0
  4  5  1  1
  4 21  1  0
  6  5  1  1
  6  7  1  0
  6 11  1  0
  7 20  2  0
  7  8  1  0
  8  9  1  0
  8 19  2  0
  9 10  2  0
  9 17  1  0
 10 14  1  0
 10 11  1  0
 11 13  1  6
 11 12  1  0
 14 15  2  0
 15 16  1  0
 16 17  2  0
 17 18  1  0
 20 21  1  0
 20 37  1  0
 21 22  1  0
 21 36  1  1
 22 23  1  0
 22 35  2  0
 23 33  2  0
 23 24  1  0
 24 25  1  0
 24 32  2  0
 25 26  1  0
 26 27  1  0
 27 31  1  0
 27 28  1  0
 28 29  1  0
 29 30  1  0
 30 31  1  0
 33 34  1  0
M  END
$$$$
