NC(N(N=O)CC)=O
     RDKit          3D

  8  7  0  0  0  0  0  0  0  0999 V2000
    2.4847   -0.3854    0.6795 N   0  0  0  0  0  0  0  0  0  0  0  0
    1.1598   -0.6432    0.2112 C   0  0  0  0  0  0  0  0  0  0  0  0
    0.2135    0.4303    0.0416 N   0  0  0  0  0  0  0  0  0  0  0  0
    0.1871    1.5345    0.9134 N   0  0  0  0  0  0  0  0  0  0  0  0
    0.8567    1.5582    1.9668 O   0  0  0  0  0  0  0  0  0  0  0  0
   -0.8285    0.3381   -0.9817 C   0  0  0  0  0  0  0  0  0  0  0  0
   -2.1011   -0.2611   -0.3938 C   0  0  0  0  0  0  0  0  0  0  0  0
    0.8338   -1.8230   -0.0901 O   0  0  0  0  0  0  0  0  0  0  0  0
  1  2  1  0
  2  3  1  0
  2  8  2  0
  3  6  1  0
  3  4  1  0
  4  5  2  0
  6  7  1  0
M  END
$$$$
