O=C(CC(CC2)C1(C)C)C12C
     RDKit          3D

 11 12  0  0  1  0  0  0  0  0999 V2000
   -2.3623   -1.2327   -1.1765 O   0  0  0  0  0  0  0  0  0  0  0  0
   -1.4149   -0.5087   -0.9120 C   0  0  0  0  0  0  0  0  0  0  0  0
   -0.9047    0.5986   -1.7815 C   0  0  0  0  0  0  0  0  0  0  0  0
    0.1862    1.1810   -0.8400 C   0  0  1  0  0  0  0  0  0  0  0  0
   -0.5681    1.9101    0.3062 C   0  0  0  0  0  0  0  0  0  0  0  0
   -1.1416    0.7401    1.1442 C   0  0  0  0  0  0  0  0  0  0  0  0
    0.7568   -0.0701   -0.1296 C   0  0  0  0  0  0  0  0  0  0  0  0
    1.8039    0.2564    0.9773 C   0  0  0  0  0  0  0  0  0  0  0  0
    1.4416   -1.0819   -1.1003 C   0  0  0  0  0  0  0  0  0  0  0  0
   -0.6344   -0.5058    0.3790 C   0  0  2  0  0  0  0  0  0  0  0  0
   -0.6925   -1.8154    1.1737 C   0  0  0  0  0  0  0  0  0  0  0  0
  1  2  2  0
  2  3  1  0
  2 10  1  0
  4  3  1  6
  4  5  1  0
  4  7  1  0
  5  6  1  0
  6 10  1  0
  7  9  1  0
  7  8  1  0
  7 10  1  0
 10 11  1  1
M  END
$$$$
