OC1(C2(C(NC(NC2=O)=O)=O)O)C(NC(NC1=O)=O)=O
     RDKit          3D

 20 21  0  0  0  0  0  0  0  0999 V2000
   -1.1366   -2.0188    0.7976 O   0  0  0  0  0  0  0  0  0  0  0  0
   -0.8421   -0.7902    0.1658 C   0  0  0  0  0  0  0  0  0  0  0  0
    0.5647   -0.8518   -0.5627 C   0  0  0  0  0  0  0  0  0  0  0  0
    0.9279    0.5323   -1.0915 C   0  0  0  0  0  0  0  0  0  0  0  0
    1.9398    1.3390   -0.4834 N   0  0  0  0  0  0  0  0  0  0  0  0
    2.7914    0.8149    0.5283 C   0  0  0  0  0  0  0  0  0  0  0  0
    2.6633   -0.5445    0.9282 N   0  0  0  0  0  0  0  0  0  0  0  0
    1.6402   -1.3858    0.3880 C   0  0  0  0  0  0  0  0  0  0  0  0
    1.6114   -2.5969    0.7383 O   0  0  0  0  0  0  0  0  0  0  0  0
    3.6685    1.5481    1.0569 O   0  0  0  0  0  0  0  0  0  0  0  0
    0.3032    0.9954   -2.0842 O   0  0  0  0  0  0  0  0  0  0  0  0
    0.5093   -1.6945   -1.6949 O   0  0  0  0  0  0  0  0  0  0  0  0
   -1.9556   -0.4817   -0.8393 C   0  0  0  0  0  0  0  0  0  0  0  0
   -2.6230    0.7831   -0.8706 N   0  0  0  0  0  0  0  0  0  0  0  0
   -2.3519    1.7871    0.1004 C   0  0  0  0  0  0  0  0  0  0  0  0
   -1.4581    1.5128    1.1725 N   0  0  0  0  0  0  0  0  0  0  0  0
   -0.7957    0.2502    1.2806 C   0  0  0  0  0  0  0  0  0  0  0  0
   -0.1345    0.0036    2.3256 O   0  0  0  0  0  0  0  0  0  0  0  0
   -2.9153    2.9107    0.0206 O   0  0  0  0  0  0  0  0  0  0  0  0
   -2.2785   -1.3524   -1.6926 O   0  0  0  0  0  0  0  0  0  0  0  0
  1  2  1  0
  2  3  1  0
  2 17  1  0
  2 13  1  0
  3  8  1  0
  3  4  1  0
  3 12  1  0
  4  5  1  0
  4 11  2  0
  5  6  1  0
  6  7  1  0
  6 10  2  0
  7  8  1  0
  8  9  2  0
 13 14  1  0
 13 20  2  0
 14 15  1  0
 15 16  1  0
 15 19  2  0
 16 17  1  0
 17 18  2  0
M  END
$$$$
