CC(C(C(NC1=O)=O)(C(N1)=O)CC)CCC
     RDKit          3D

 16 16  0  0  1  0  0  0  0  0999 V2000
    0.7778   -1.0062   -1.3343 C   0  0  0  0  0  0  0  0  0  0  0  0
    0.4326    0.1768   -0.4009 C   0  0  1  0  0  0  0  0  0  0  0  0
   -1.0591    0.0817    0.1281 C   0  0  0  0  0  0  0  0  0  0  0  0
   -1.2561   -1.2407    0.8818 C   0  0  0  0  0  0  0  0  0  0  0  0
   -2.1597   -2.2537    0.4335 N   0  0  0  0  0  0  0  0  0  0  0  0
   -3.0296   -2.0394   -0.6687 C   0  0  0  0  0  0  0  0  0  0  0  0
   -3.8524   -2.9315   -1.0059 O   0  0  0  0  0  0  0  0  0  0  0  0
   -0.6183   -1.4480    1.9496 O   0  0  0  0  0  0  0  0  0  0  0  0
   -2.0031    0.1888   -1.0787 C   0  0  0  0  0  0  0  0  0  0  0  0
   -2.9703   -0.8170   -1.3897 N   0  0  0  0  0  0  0  0  0  0  0  0
   -1.9107    1.1796   -1.8532 O   0  0  0  0  0  0  0  0  0  0  0  0
   -1.4410    1.2239    1.1319 C   0  0  0  0  0  0  0  0  0  0  0  0
   -1.1695    2.6622    0.6686 C   0  0  0  0  0  0  0  0  0  0  0  0
    1.5133    0.3081    0.7150 C   0  0  0  0  0  0  0  0  0  0  0  0
    2.9053    0.7206    0.1806 C   0  0  0  0  0  0  0  0  0  0  0  0
    3.9006   -0.4402    0.1859 C   0  0  0  0  0  0  0  0  0  0  0  0
  2  1  1  1
  2 14  1  0
  2  3  1  0
  3 12  1  0
  3  9  1  0
  3  4  1  0
  4  5  1  0
  4  8  2  0
  5  6  1  0
  6 10  1  0
  6  7  2  0
  9 10  1  0
  9 11  2  0
 12 13  1  0
 14 15  1  0
 15 16  1  0
M  END
$$$$
