
     RDKit          3D

 22 24  0  0  1  0  0  0  0  0999 V2000
   -0.3859   -1.2126    1.3598 O   0  0  0  0  0  0  0  0  0  0  0  0
   -0.0587   -0.4866    0.1906 C   0  0  1  0  0  0  0  0  0  0  0  0
   -0.4505    0.9985    0.3946 C   0  0  0  0  0  0  0  0  0  0  0  0
   -1.3765    1.6899   -0.4247 C   0  0  0  0  0  0  0  0  0  0  0  0
   -1.6676    3.0388   -0.1995 C   0  0  0  0  0  0  0  0  0  0  0  0
   -1.0359    3.7333    0.8306 C   0  0  0  0  0  0  0  0  0  0  0  0
   -1.3197    5.0421    1.0418 F   0  0  0  0  0  0  0  0  0  0  0  0
   -0.1035    3.0823    1.6356 C   0  0  0  0  0  0  0  0  0  0  0  0
    0.1915    1.7342    1.4184 C   0  0  0  0  0  0  0  0  0  0  0  0
    1.4533   -0.5593   -0.0921 C   0  0  0  0  0  0  0  0  0  0  0  0
    2.0209    0.1884   -1.1518 C   0  0  0  0  0  0  0  0  0  0  0  0
    1.2502    0.9863   -1.9334 F   0  0  0  0  0  0  0  0  0  0  0  0
    3.3914    0.1159   -1.4191 C   0  0  0  0  0  0  0  0  0  0  0  0
    4.2154   -0.7069   -0.6519 C   0  0  0  0  0  0  0  0  0  0  0  0
    3.6712   -1.4684    0.3815 C   0  0  0  0  0  0  0  0  0  0  0  0
    2.3028   -1.4036    0.6581 C   0  0  0  0  0  0  0  0  0  0  0  0
   -0.7837   -1.2049   -0.9938 C   0  0  0  0  0  0  0  0  0  0  0  0
   -2.0726   -1.7912   -0.6049 N   0  0  0  0  0  0  0  0  0  0  0  0
   -3.1674   -1.1729   -0.1238 C   0  0  0  0  0  0  0  0  0  0  0  0
   -4.1600   -2.0516    0.1144 N   0  0  0  0  0  0  0  0  0  0  0  0
   -3.6045   -3.2263   -0.2511 C   0  0  0  0  0  0  0  0  0  0  0  0
   -2.3396   -3.0821   -0.6884 N   0  0  0  0  0  0  0  0  0  0  0  0
  2  1  1  1
  2  3  1  0
  2 10  1  0
  2 17  1  0
  3  9  1  0
  3  4  2  0
  4  5  1  0
  5  6  2  0
  6  8  1  0
  6  7  1  0
  8  9  2  0
 10 16  1  0
 10 11  2  0
 11 13  1  0
 11 12  1  0
 13 14  2  0
 14 15  1  0
 15 16  2  0
 17 18  1  0
 18 19  1  0
 18 22  1  0
 19 20  2  0
 20 21  1  0
 21 22  2  0
M  END
$$$$
