
     RDKit          3D

 16 17  0  0  1  0  0  0  0  0999 V2000
    0.2844    2.8471   -0.4651 C   0  0  0  0  0  0  0  0  0  0  0  0
   -0.6408    2.0501    0.4667 C   0  0  0  0  0  0  0  0  0  0  0  0
   -0.7347    0.5201    0.1550 C   0  0  2  0  0  0  0  0  0  0  0  0
   -1.4153   -0.1751    1.3701 C   0  0  0  0  0  0  0  0  0  0  0  0
   -1.6066   -1.6866    1.1650 C   0  0  0  0  0  0  0  0  0  0  0  0
   -2.2430   -1.9896   -0.1599 C   0  0  0  0  0  0  0  0  0  0  0  0
   -2.7032   -3.1416   -0.3780 O   0  0  0  0  0  0  0  0  0  0  0  0
    0.6742   -0.0724   -0.0606 C   0  0  0  0  0  0  0  0  0  0  0  0
    1.0658   -0.6737   -1.2806 C   0  0  0  0  0  0  0  0  0  0  0  0
    2.3523   -1.1969   -1.4395 C   0  0  0  0  0  0  0  0  0  0  0  0
    3.2735   -1.1267   -0.3952 C   0  0  0  0  0  0  0  0  0  0  0  0
    2.9130   -0.5285    0.8113 C   0  0  0  0  0  0  0  0  0  0  0  0
    1.6290   -0.0037    0.9789 C   0  0  0  0  0  0  0  0  0  0  0  0
   -1.6572    0.2718   -1.0389 C   0  0  0  0  0  0  0  0  0  0  0  0
   -2.3168   -0.9916   -1.1827 N   0  0  0  0  0  0  0  0  0  0  0  0
   -1.8329    1.1538   -1.9220 O   0  0  0  0  0  0  0  0  0  0  0  0
  1  2  1  0
  3  2  1  1
  3  4  1  0
  3  8  1  0
  3 14  1  0
  4  5  1  0
  5  6  1  0
  6 15  1  0
  6  7  2  0
  8 13  1  0
  8  9  2  0
  9 10  1  0
 10 11  2  0
 11 12  1  0
 12 13  2  0
 14 15  1  0
 14 16  2  0
M  END
$$$$
