CC(CC(C)=CC1=O)(C1)C
     RDKit          3D

 10 10  0  0  0  0  0  0  0  0999 V2000
   -2.1980   -0.9403   -0.6425 C   0  0  0  0  0  0  0  0  0  0  0  0
   -1.0083   -0.1027   -0.1323 C   0  0  0  0  0  0  0  0  0  0  0  0
    0.2627   -0.9949   -0.0919 C   0  0  0  0  0  0  0  0  0  0  0  0
    1.5345   -0.2115    0.1658 C   0  0  0  0  0  0  0  0  0  0  0  0
    2.7225   -0.9072    0.7647 C   0  0  0  0  0  0  0  0  0  0  0  0
    1.6385    1.0793   -0.1856 C   0  0  0  0  0  0  0  0  0  0  0  0
    0.5091    1.8020   -0.7913 C   0  0  0  0  0  0  0  0  0  0  0  0
    0.6394    3.0162   -1.0996 O   0  0  0  0  0  0  0  0  0  0  0  0
   -0.7770    1.0883   -1.0960 C   0  0  0  0  0  0  0  0  0  0  0  0
   -1.3456    0.4120    1.2867 C   0  0  0  0  0  0  0  0  0  0  0  0
  1  2  1  0
  2 10  1  0
  2  3  1  0
  2  9  1  0
  3  4  1  0
  4  5  1  0
  4  6  2  0
  6  7  1  0
  7  9  1  0
  7  8  2  0
M  END
$$$$
