CC(C)=CCCC(C)(O)C=C
     RDKit          3D

 11 10  0  0  1  0  0  0  0  0999 V2000
    3.9179   -0.2058    1.7782 C   0  0  0  0  0  0  0  0  0  0  0  0
    2.8988    0.1828    0.7385 C   0  0  0  0  0  0  0  0  0  0  0  0
    3.3311    0.9678   -0.4774 C   0  0  0  0  0  0  0  0  0  0  0  0
    1.6126   -0.1839    0.9220 C   0  0  0  0  0  0  0  0  0  0  0  0
    0.5117    0.1537   -0.0552 C   0  0  0  0  0  0  0  0  0  0  0  0
   -0.8416   -0.4045    0.4194 C   0  0  0  0  0  0  0  0  0  0  0  0
   -1.9989   -0.2073   -0.6015 C   0  0  1  0  0  0  0  0  0  0  0  0
   -2.3105    1.2901   -0.7835 C   0  0  0  0  0  0  0  0  0  0  0  0
   -1.6378   -0.7446   -1.8530 O   0  0  0  0  0  0  0  0  0  0  0  0
   -3.2448   -0.9107   -0.0817 C   0  0  0  0  0  0  0  0  0  0  0  0
   -4.3457   -1.0598   -0.8279 C   0  0  0  0  0  0  0  0  0  0  0  0
  1  2  1  0
  2  3  1  0
  2  4  2  0
  4  5  1  0
  5  6  1  0
  7  6  1  1
  7  8  1  0
  7 10  1  0
  7  9  1  0
 10 11  2  0
M  END
$$$$
