CC(Cl)CCl
     RDKit          3D

  5  4  0  0  1  0  0  0  0  0999 V2000
    1.2826    0.1819    0.1370 C   0  0  0  0  0  0  0  0  0  0  0  0
   -0.0171   -0.1397   -0.6022 C   0  0  1  0  0  0  0  0  0  0  0  0
   -0.0114   -1.8432   -1.1426 Cl  0  0  0  0  0  0  0  0  0  0  0  0
   -1.2585    0.1587    0.2498 C   0  0  0  0  0  0  0  0  0  0  0  0
   -1.3371   -0.8460    1.7265 Cl  0  0  0  0  0  0  0  0  0  0  0  0
  2  1  1  1
  2  4  1  0
  2  3  1  0
  4  5  1  0
M  END
$$$$
