NC(CCl)=O
     RDKit          3D

  5  4  0  0  0  0  0  0  0  0999 V2000
    1.3251   -0.2122   -0.5088 N   0  0  0  0  0  0  0  0  0  0  0  0
    0.1575   -0.5259    0.2498 C   0  0  0  0  0  0  0  0  0  0  0  0
   -0.9517    0.4680    0.3754 C   0  0  0  0  0  0  0  0  0  0  0  0
   -2.0013    0.3775   -1.0586 Cl  0  0  0  0  0  0  0  0  0  0  0  0
    0.0450   -1.6614    0.7836 O   0  0  0  0  0  0  0  0  0  0  0  0
  1  2  1  0
  2  3  1  0
  2  5  2  0
  3  4  1  0
M  END
$$$$
