OC(CCl)=O
     RDKit          3D

  5  4  0  0  0  0  0  0  0  0999 V2000
    1.5428    0.7034   -0.0781 O   0  0  0  0  0  0  0  0  0  0  0  0
    0.6785   -0.3860   -0.0235 C   0  0  0  0  0  0  0  0  0  0  0  0
   -0.8008   -0.1862   -0.0979 C   0  0  0  0  0  0  0  0  0  0  0  0
   -1.4241    0.2638    1.5066 Cl  0  0  0  0  0  0  0  0  0  0  0  0
    1.1493   -1.5438    0.1287 O   0  0  0  0  0  0  0  0  0  0  0  0
  1  2  1  0
  2  3  1  0
  2  5  2  0
  3  4  1  0
M  END
$$$$
