CC(OC)=O
     RDKit          3D

  5  4  0  0  0  0  0  0  0  0999 V2000
   -1.7918   -0.0702   -0.4445 C   0  0  0  0  0  0  0  0  0  0  0  0
   -0.5538   -0.0934    0.3866 C   0  0  0  0  0  0  0  0  0  0  0  0
    0.6829    0.1402   -0.2207 O   0  0  0  0  0  0  0  0  0  0  0  0
    1.9061    0.1342    0.5055 C   0  0  0  0  0  0  0  0  0  0  0  0
   -0.6311   -0.3223    1.6247 O   0  0  0  0  0  0  0  0  0  0  0  0
  1  2  1  0
  2  5  2  0
  2  3  1  0
  3  4  1  0
M  END
$$$$
