CC(C(O)=O)=C
     RDKit          3D

  6  5  0  0  0  0  0  0  0  0999 V2000
   -1.5130   -0.0385    0.4320 C   0  0  0  0  0  0  0  0  0  0  0  0
   -0.0789   -0.0992   -0.0199 C   0  0  0  0  0  0  0  0  0  0  0  0
    0.5825    1.1118   -0.5664 C   0  0  0  0  0  0  0  0  0  0  0  0
    1.9691    1.2634   -0.5522 O   0  0  0  0  0  0  0  0  0  0  0  0
   -0.1183    2.0412   -1.0473 O   0  0  0  0  0  0  0  0  0  0  0  0
    0.5668   -1.2678    0.0515 C   0  0  0  0  0  0  0  0  0  0  0  0
  1  2  1  0
  2  6  2  0
  2  3  1  0
  3  4  1  0
  3  5  2  0
M  END
$$$$
