OC(C2(C(C(O)=C1C(N)=O)N(C)C))(C(O)=C(C3=O)C(C2O)(C(C)(O)c4c3c(O)ccc4))C1=O
     RDKit          3D

 33 36  0  0  1  0  0  0  0  0999 V2000
   -2.0146    1.6323   -1.0577 O   0  0  0  0  0  0  0  0  0  0  0  0
   -1.2780    1.0903    0.0146 C   0  0  1  0  0  0  0  0  0  0  0  0
   -1.0859   -0.4256   -0.2913 C   0  0  2  0  0  0  0  0  0  0  0  0
   -2.3382   -1.3362    0.0207 C   0  0  1  0  0  0  0  0  0  0  0  0
   -3.5443   -0.6281    0.6479 C   0  0  0  0  0  0  0  0  0  0  0  0
   -4.7914   -1.2612    0.5723 O   0  0  0  0  0  0  0  0  0  0  0  0
   -3.3804    0.5162    1.3494 C   0  0  0  0  0  0  0  0  0  0  0  0
   -4.4665    1.1197    2.1565 C   0  0  0  0  0  0  0  0  0  0  0  0
   -4.6858    2.5317    2.1291 N   0  0  0  0  0  0  0  0  0  0  0  0
   -5.1666    0.4018    2.9185 O   0  0  0  0  0  0  0  0  0  0  0  0
   -2.6734   -2.1436   -1.1853 N   0  0  0  0  0  0  0  0  0  0  0  0
   -3.1922   -3.4844   -0.8739 C   0  0  0  0  0  0  0  0  0  0  0  0
   -3.4972   -1.4494   -2.1880 C   0  0  0  0  0  0  0  0  0  0  0  0
    0.0447    1.8676    0.1355 C   0  0  0  0  0  0  0  0  0  0  0  0
   -0.0172    3.2540    0.3262 O   0  0  0  0  0  0  0  0  0  0  0  0
    1.2638    1.2736    0.0811 C   0  0  0  0  0  0  0  0  0  0  0  0
    2.5174    2.0716    0.1754 C   0  0  0  0  0  0  0  0  0  0  0  0
    2.5396    3.1685    0.7959 O   0  0  0  0  0  0  0  0  0  0  0  0
    1.4215   -0.2239   -0.1573 C   0  0  2  0  0  0  0  0  0  0  0  0
    0.1870   -0.9870    0.3757 C   0  0  1  0  0  0  0  0  0  0  0  0
    0.0923   -0.8625    1.7761 O   0  0  0  0  0  0  0  0  0  0  0  0
    2.7906   -0.7347    0.4128 C   0  0  2  0  0  0  0  0  0  0  0  0
    2.9284   -2.2646    0.2211 C   0  0  0  0  0  0  0  0  0  0  0  0
    2.8355   -0.4510    1.7896 O   0  0  0  0  0  0  0  0  0  0  0  0
    3.9057    0.0711   -0.2830 C   0  0  0  0  0  0  0  0  0  0  0  0
    3.7717    1.4812   -0.3424 C   0  0  0  0  0  0  0  0  0  0  0  0
    4.8012    2.2681   -0.9224 C   0  0  0  0  0  0  0  0  0  0  0  0
    4.7093    3.6516   -1.0681 O   0  0  0  0  0  0  0  0  0  0  0  0
    5.9576    1.6471   -1.4010 C   0  0  0  0  0  0  0  0  0  0  0  0
    6.0862    0.2623   -1.3633 C   0  0  0  0  0  0  0  0  0  0  0  0
    5.0687   -0.5249   -0.8198 C   0  0  0  0  0  0  0  0  0  0  0  0
   -2.0881    1.2085    1.2860 C   0  0  0  0  0  0  0  0  0  0  0  0
   -1.6996    1.9082    2.2634 O   0  0  0  0  0  0  0  0  0  0  0  0
  2  1  1  6
  2  3  1  0
  2 14  1  0
  2 32  1  0
  3  4  1  1
  3 20  1  0
  4  5  1  0
  4 11  1  6
  5  7  2  0
  5  6  1  0
  7 32  1  0
  7  8  1  0
  8  9  1  0
  8 10  2  0
 11 12  1  0
 11 13  1  0
 14 16  2  0
 14 15  1  0
 19 16  1  1
 16 17  1  0
 17 26  1  0
 17 18  2  0
 19 20  1  0
 19 22  1  0
 20 21  1  1
 22 23  1  1
 22 25  1  0
 22 24  1  0
 25 31  1  0
 25 26  2  0
 26 27  1  0
 27 29  2  0
 27 28  1  0
 29 30  1  0
 30 31  2  0
 32 33  2  0
M  END
$$$$
