CC(CCCCCCC)=O
     RDKit          3D

 10  9  0  0  0  0  0  0  0  0999 V2000
   -4.5189   -0.6187    0.2813 C   0  0  0  0  0  0  0  0  0  0  0  0
   -3.3728    0.1688    0.8408 C   0  0  0  0  0  0  0  0  0  0  0  0
   -2.5168    1.0153   -0.0642 C   0  0  0  0  0  0  0  0  0  0  0  0
   -1.2089    0.3098   -0.4524 C   0  0  0  0  0  0  0  0  0  0  0  0
   -0.2053    0.2458    0.7121 C   0  0  0  0  0  0  0  0  0  0  0  0
    1.1068   -0.4557    0.3236 C   0  0  0  0  0  0  0  0  0  0  0  0
    2.0253    0.4382   -0.5279 C   0  0  0  0  0  0  0  0  0  0  0  0
    3.3299   -0.2696   -0.9264 C   0  0  0  0  0  0  0  0  0  0  0  0
    4.2959   -0.4380    0.2464 C   0  0  0  0  0  0  0  0  0  0  0  0
   -3.1432    0.1344    2.0403 O   0  0  0  0  0  0  0  0  0  0  0  0
  1  2  1  0
  2  3  1  0
  2 10  2  0
  3  4  1  0
  4  5  1  0
  5  6  1  0
  6  7  1  0
  7  8  1  0
  8  9  1  0
M  END
$$$$
