Oc1c(cccc2O)c2ccc1
     RDKit          3D

 12 13  0  0  0  0  0  0  0  0999 V2000
   -2.7819    1.3938    0.0030 O   0  0  0  0  0  0  0  0  0  0  0  0
   -1.8433    0.3603    0.0887 C   0  0  0  0  0  0  0  0  0  0  0  0
   -0.4418    0.5602   -0.0517 C   0  0  0  0  0  0  0  0  0  0  0  0
    0.1050    1.8384   -0.2911 C   0  0  0  0  0  0  0  0  0  0  0  0
    1.4798    2.0112   -0.4252 C   0  0  0  0  0  0  0  0  0  0  0  0
    2.3387    0.9234   -0.3250 C   0  0  0  0  0  0  0  0  0  0  0  0
    1.8433   -0.3603   -0.0887 C   0  0  0  0  0  0  0  0  0  0  0  0
    2.7819   -1.3938   -0.0030 O   0  0  0  0  0  0  0  0  0  0  0  0
    0.4418   -0.5602    0.0517 C   0  0  0  0  0  0  0  0  0  0  0  0
   -0.1050   -1.8384    0.2911 C   0  0  0  0  0  0  0  0  0  0  0  0
   -1.4798   -2.0112    0.4252 C   0  0  0  0  0  0  0  0  0  0  0  0
   -2.3387   -0.9234    0.3250 C   0  0  0  0  0  0  0  0  0  0  0  0
  1  2  1  0
  2 12  2  0
  2  3  1  0
  3  4  2  0
  3  9  1  0
  4  5  1  0
  5  6  2  0
  6  7  1  0
  7  9  2  0
  7  8  1  0
  9 10  1  0
 10 11  2  0
 11 12  1  0
M  END
$$$$
