O=C(C(c(cc(OC)c(OC)c4)c4OC3)C3O2)c1c2c(CC(C(C)=C)O5)c5cc1
     RDKit          3D

 29 33  0  0  1  0  0  0  0  0999 V2000
   -0.5380   -1.6651    3.3849 O   0  0  0  0  0  0  0  0  0  0  0  0
   -0.2471   -0.8010    2.5135 C   0  0  0  0  0  0  0  0  0  0  0  0
   -1.0701    0.4627    2.3993 C   0  0  2  0  0  0  0  0  0  0  0  0
   -2.1976    0.3132    1.3831 C   0  0  0  0  0  0  0  0  0  0  0  0
   -2.9739   -0.8583    1.3241 C   0  0  0  0  0  0  0  0  0  0  0  0
   -4.0084   -0.9915    0.3782 C   0  0  0  0  0  0  0  0  0  0  0  0
   -4.7789   -2.1609    0.2771 O   0  0  0  0  0  0  0  0  0  0  0  0
   -4.5928   -3.3232    1.0784 C   0  0  0  0  0  0  0  0  0  0  0  0
   -4.2899    0.0672   -0.4969 C   0  0  0  0  0  0  0  0  0  0  0  0
   -5.3231   -0.0980   -1.4328 O   0  0  0  0  0  0  0  0  0  0  0  0
   -5.7469    0.9046   -2.3512 C   0  0  0  0  0  0  0  0  0  0  0  0
   -3.5433    1.2560   -0.4121 C   0  0  0  0  0  0  0  0  0  0  0  0
   -2.5226    1.3882    0.5310 C   0  0  0  0  0  0  0  0  0  0  0  0
   -1.8265    2.5993    0.6158 O   0  0  0  0  0  0  0  0  0  0  0  0
   -0.9475    2.8864    1.6996 C   0  0  0  0  0  0  0  0  0  0  0  0
   -0.1282    1.6439    2.0419 C   0  0  2  0  0  0  0  0  0  0  0  0
    0.7101    1.3163    0.9276 O   0  0  0  0  0  0  0  0  0  0  0  0
    0.8712   -1.0259    1.5798 C   0  0  0  0  0  0  0  0  0  0  0  0
    1.2985    0.0561    0.7850 C   0  0  0  0  0  0  0  0  0  0  0  0
    2.3113   -0.1601   -0.1500 C   0  0  0  0  0  0  0  0  0  0  0  0
    2.9206    0.8037   -1.1044 C   0  0  0  0  0  0  0  0  0  0  0  0
    3.9886   -0.0683   -1.8280 C   0  0  1  0  0  0  0  0  0  0  0  0
    5.3936    0.4733   -1.6482 C   0  0  0  0  0  0  0  0  0  0  0  0
    6.1612    0.9994   -2.8320 C   0  0  0  0  0  0  0  0  0  0  0  0
    5.9688    0.4941   -0.4353 C   0  0  0  0  0  0  0  0  0  0  0  0
    3.8821   -1.3710   -1.2486 O   0  0  0  0  0  0  0  0  0  0  0  0
    2.9029   -1.3840   -0.2799 C   0  0  0  0  0  0  0  0  0  0  0  0
    2.5227   -2.4717    0.5044 C   0  0  0  0  0  0  0  0  0  0  0  0
    1.4929   -2.2894    1.4433 C   0  0  0  0  0  0  0  0  0  0  0  0
  1  2  2  0
  3  2  1  6
  2 18  1  0
  3  4  1  0
  3 16  1  0
  4  5  2  0
  4 13  1  0
  5  6  1  0
  6  9  2  0
  6  7  1  0
  7  8  1  0
  9 12  1  0
  9 10  1  0
 10 11  1  0
 12 13  2  0
 13 14  1  0
 14 15  1  0
 16 15  1  6
 16 17  1  0
 17 19  1  0
 18 29  2  0
 18 19  1  0
 19 20  2  0
 20 21  1  0
 20 27  1  0
 21 22  1  0
 22 23  1  1
 22 26  1  0
 23 24  1  0
 23 25  2  0
 26 27  1  0
 27 28  2  0
 28 29  1  0
M  END
$$$$
