Cc1cc2c(N=C(C(N3)=O)C(N2CC(O)C(O)C(O)CO)=NC3=O)cc1C
     RDKit          3D

 27 29  0  0  1  0  0  0  0  0999 V2000
   -1.5590   -3.6265   -0.3245 C   0  0  0  0  0  0  0  0  0  0  0  0
   -1.8324   -2.1656   -0.5829 C   0  0  0  0  0  0  0  0  0  0  0  0
   -1.0785   -1.1930    0.0960 C   0  0  0  0  0  0  0  0  0  0  0  0
   -1.2873    0.1918   -0.1115 C   0  0  0  0  0  0  0  0  0  0  0  0
   -2.3097    0.5667   -1.0317 C   0  0  0  0  0  0  0  0  0  0  0  0
   -2.5738    1.8721   -1.2816 N   0  0  0  0  0  0  0  0  0  0  0  0
   -1.8775    2.8513   -0.6712 C   0  0  0  0  0  0  0  0  0  0  0  0
   -2.1235    4.2015   -0.9149 C   0  0  0  0  0  0  0  0  0  0  0  0
   -1.3814    5.1470   -0.2754 N   0  0  0  0  0  0  0  0  0  0  0  0
   -3.0261    4.5495   -1.7234 O   0  0  0  0  0  0  0  0  0  0  0  0
   -0.8168    2.4943    0.2777 C   0  0  0  0  0  0  0  0  0  0  0  0
   -0.5453    1.1715    0.5393 N   0  0  0  0  0  0  0  0  0  0  0  0
    0.5585    0.8688    1.4875 C   0  0  0  0  0  0  0  0  0  0  0  0
    1.9456    0.9821    0.8022 C   0  0  1  0  0  0  0  0  0  0  0  0
    2.9424    1.2392    1.7556 O   0  0  0  0  0  0  0  0  0  0  0  0
    2.3287   -0.2465   -0.0599 C   0  0  1  0  0  0  0  0  0  0  0  0
    3.4287    0.0951   -0.8670 O   0  0  0  0  0  0  0  0  0  0  0  0
    2.6244   -1.5641    0.7268 C   0  0  1  0  0  0  0  0  0  0  0  0
    2.6491   -2.6361   -0.1821 O   0  0  0  0  0  0  0  0  0  0  0  0
    3.9607   -1.5569    1.4981 C   0  0  0  0  0  0  0  0  0  0  0  0
    3.7745   -1.0609    2.7953 O   0  0  0  0  0  0  0  0  0  0  0  0
   -0.1229    3.5031    0.8708 N   0  0  0  0  0  0  0  0  0  0  0  0
   -0.3951    4.8080    0.6038 C   0  0  0  0  0  0  0  0  0  0  0  0
    0.2726    5.7091    1.1762 O   0  0  0  0  0  0  0  0  0  0  0  0
   -3.0620   -0.4014   -1.7010 C   0  0  0  0  0  0  0  0  0  0  0  0
   -2.8321   -1.7654   -1.4928 C   0  0  0  0  0  0  0  0  0  0  0  0
   -3.6689   -2.7769   -2.2333 C   0  0  0  0  0  0  0  0  0  0  0  0
  1  2  1  0
  2  3  2  0
  2 26  1  0
  3  4  1  0
  4  5  2  0
  4 12  1  0
  5 25  1  0
  5  6  1  0
  6  7  2  0
  7 11  1  0
  7  8  1  0
  8  9  1  0
  8 10  2  0
  9 23  1  0
 11 12  1  0
 11 22  2  0
 12 13  1  0
 14 13  1  1
 14 16  1  0
 14 15  1  0
 16 18  1  0
 16 17  1  1
 18 20  1  6
 18 19  1  0
 20 21  1  0
 22 23  1  0
 23 24  2  0
 25 26  2  0
 26 27  1  0
M  END
$$$$
