CC(C)Nc1nc(NCC)nc(SC)n1
     RDKit          3D

 15 15  0  0  0  0  0  0  0  0999 V2000
    3.3069   -1.1432    0.3060 C   0  0  0  0  0  0  0  0  0  0  0  0
    3.3900    0.0623   -0.6364 C   0  0  0  0  0  0  0  0  0  0  0  0
    3.1758   -0.3404   -2.0993 C   0  0  0  0  0  0  0  0  0  0  0  0
    2.4587    1.1237   -0.2313 N   0  0  0  0  0  0  0  0  0  0  0  0
    1.0277    1.0028   -0.1922 C   0  0  0  0  0  0  0  0  0  0  0  0
    0.4111   -0.1546   -0.5474 N   0  0  0  0  0  0  0  0  0  0  0  0
   -0.9417   -0.2570   -0.5048 C   0  0  0  0  0  0  0  0  0  0  0  0
   -1.5729   -1.4866   -0.8831 N   0  0  0  0  0  0  0  0  0  0  0  0
   -3.0202   -1.6841   -0.8290 C   0  0  0  0  0  0  0  0  0  0  0  0
   -3.4844   -1.8672    0.6121 C   0  0  0  0  0  0  0  0  0  0  0  0
   -1.6829    0.8098   -0.1073 N   0  0  0  0  0  0  0  0  0  0  0  0
   -1.0737    1.9667    0.2513 C   0  0  0  0  0  0  0  0  0  0  0  0
   -2.0540    3.3651    0.7826 S   0  0  0  0  0  0  0  0  0  0  0  0
   -2.0420    2.8541    2.5286 C   0  0  0  0  0  0  0  0  0  0  0  0
    0.2787    2.0627    0.2076 N   0  0  0  0  0  0  0  0  0  0  0  0
  1  2  1  0
  2  3  1  0
  2  4  1  0
  4  5  1  0
  5  6  2  0
  5 15  1  0
  6  7  1  0
  7  8  1  0
  7 11  2  0
  8  9  1  0
  9 10  1  0
 11 12  1  0
 12 15  2  0
 12 13  1  0
 13 14  1  0
M  END
$$$$
