CC(OCCN4CCN(CC4)CCCN2c1c(Sc3ccc(cc23)Cl)cccc1)=O
     RDKit          3D

 30 33  0  0  0  0  0  0  0  0999 V2000
    8.5505   -0.1098   -0.8880 C   0  0  0  0  0  0  0  0  0  0  0  0
    7.2941   -0.0122   -1.6846 C   0  0  0  0  0  0  0  0  0  0  0  0
    6.0969    0.3283   -1.0486 O   0  0  0  0  0  0  0  0  0  0  0  0
    4.8610    0.4437   -1.7472 C   0  0  0  0  0  0  0  0  0  0  0  0
    3.7504    0.8231   -0.7702 C   0  0  0  0  0  0  0  0  0  0  0  0
    3.6062   -0.2188    0.2726 N   0  0  0  0  0  0  0  0  0  0  0  0
    3.2279    0.3485    1.5832 C   0  0  0  0  0  0  0  0  0  0  0  0
    1.7984    0.9331    1.5725 C   0  0  0  0  0  0  0  0  0  0  0  0
    0.9625    0.3133    0.5239 N   0  0  0  0  0  0  0  0  0  0  0  0
    1.2458   -1.1211    0.3625 C   0  0  0  0  0  0  0  0  0  0  0  0
    2.6923   -1.3164   -0.1361 C   0  0  0  0  0  0  0  0  0  0  0  0
   -0.4756    0.6332    0.6563 C   0  0  0  0  0  0  0  0  0  0  0  0
   -1.2085   -0.1694    1.7553 C   0  0  0  0  0  0  0  0  0  0  0  0
   -2.6597    0.3019    1.9285 C   0  0  0  0  0  0  0  0  0  0  0  0
   -3.4433    0.1098    0.6956 N   0  0  0  0  0  0  0  0  0  0  0  0
   -3.5875   -1.1923    0.0841 C   0  0  0  0  0  0  0  0  0  0  0  0
   -3.6483   -1.2906   -1.3198 C   0  0  0  0  0  0  0  0  0  0  0  0
   -3.2239    0.1365   -2.3239 S   0  0  0  0  0  0  0  0  0  0  0  0
   -4.2121    1.2649   -1.3378 C   0  0  0  0  0  0  0  0  0  0  0  0
   -5.0195    2.2199   -1.9636 C   0  0  0  0  0  0  0  0  0  0  0  0
   -5.7227    3.1516   -1.1961 C   0  0  0  0  0  0  0  0  0  0  0  0
   -5.6315    3.1226    0.1993 C   0  0  0  0  0  0  0  0  0  0  0  0
   -4.8455    2.1518    0.8304 C   0  0  0  0  0  0  0  0  0  0  0  0
   -4.1234    1.2178    0.0665 C   0  0  0  0  0  0  0  0  0  0  0  0
   -6.5344    4.2797    1.1597 Cl  0  0  0  0  0  0  0  0  0  0  0  0
   -3.9557   -2.5104   -1.9306 C   0  0  0  0  0  0  0  0  0  0  0  0
   -4.1736   -3.6474   -1.1484 C   0  0  0  0  0  0  0  0  0  0  0  0
   -4.0899   -3.5662    0.2442 C   0  0  0  0  0  0  0  0  0  0  0  0
   -3.8056   -2.3439    0.8613 C   0  0  0  0  0  0  0  0  0  0  0  0
    7.3233   -0.2405   -2.9243 O   0  0  0  0  0  0  0  0  0  0  0  0
  1  2  1  0
  2 30  2  0
  2  3  1  0
  3  4  1  0
  4  5  1  0
  5  6  1  0
  6 11  1  0
  6  7  1  0
  7  8  1  0
  8  9  1  0
  9 12  1  0
  9 10  1  0
 10 11  1  0
 12 13  1  0
 13 14  1  0
 14 15  1  0
 15 16  1  0
 15 24  1  0
 16 29  2  0
 16 17  1  0
 17 26  2  0
 17 18  1  0
 18 19  1  0
 19 20  2  0
 19 24  1  0
 20 21  1  0
 21 22  2  0
 22 23  1  0
 22 25  1  0
 23 24  2  0
 26 27  1  0
 27 28  2  0
 28 29  1  0
M  END
$$$$
