CC=C(c1ccc(O)cc1)C(c2ccc(O)cc2)=CC
     RDKit          3D

 20 21  0  0  0  0  0  0  0  0999 V2000
   -2.1583   -3.0197    1.4099 C   0  0  0  0  0  0  0  0  0  0  0  0
   -0.9246   -2.7215    0.6102 C   0  0  0  0  0  0  0  0  0  0  0  0
   -0.5926   -1.4841    0.1876 C   0  0  0  0  0  0  0  0  0  0  0  0
   -1.3930   -0.2994    0.5761 C   0  0  0  0  0  0  0  0  0  0  0  0
   -2.0576    0.4471   -0.4087 C   0  0  0  0  0  0  0  0  0  0  0  0
   -2.7747    1.5947   -0.0578 C   0  0  0  0  0  0  0  0  0  0  0  0
   -2.8234    2.0128    1.2792 C   0  0  0  0  0  0  0  0  0  0  0  0
   -3.5341    3.1549    1.6408 O   0  0  0  0  0  0  0  0  0  0  0  0
   -2.1484    1.2796    2.2607 C   0  0  0  0  0  0  0  0  0  0  0  0
   -1.4304    0.1319    1.9119 C   0  0  0  0  0  0  0  0  0  0  0  0
    0.6077   -1.2607   -0.6680 C   0  0  0  0  0  0  0  0  0  0  0  0
    1.3947   -0.0255   -0.4440 C   0  0  0  0  0  0  0  0  0  0  0  0
    1.4311    0.9862   -1.4171 C   0  0  0  0  0  0  0  0  0  0  0  0
    2.1363    2.1689   -1.1765 C   0  0  0  0  0  0  0  0  0  0  0  0
    2.7997    2.3575    0.0405 C   0  0  0  0  0  0  0  0  0  0  0  0
    3.4978    3.5413    0.2672 O   0  0  0  0  0  0  0  0  0  0  0  0
    2.7521    1.3568    1.0209 C   0  0  0  0  0  0  0  0  0  0  0  0
    2.0477    0.1732    0.7820 C   0  0  0  0  0  0  0  0  0  0  0  0
    0.9502   -2.1434   -1.6291 C   0  0  0  0  0  0  0  0  0  0  0  0
    2.1866   -2.0142   -2.4689 C   0  0  0  0  0  0  0  0  0  0  0  0
  1  2  1  0
  2  3  2  0
  3  4  1  0
  3 11  1  0
  4 10  1  0
  4  5  2  0
  5  6  1  0
  6  7  2  0
  7  9  1  0
  7  8  1  0
  9 10  2  0
 11 19  2  0
 11 12  1  0
 12 18  1  0
 12 13  2  0
 13 14  1  0
 14 15  2  0
 15 17  1  0
 15 16  1  0
 17 18  2  0
 19 20  1  0
M  END
$$$$
