O=C(OCC)c1ccccc1C(OCC)=O
     RDKit          3D

 16 16  0  0  0  0  0  0  0  0999 V2000
    0.2413    1.2497   -0.2347 O   0  0  0  0  0  0  0  0  0  0  0  0
   -0.6741    0.4264   -0.5096 C   0  0  0  0  0  0  0  0  0  0  0  0
   -2.0136    0.8341   -0.5108 O   0  0  0  0  0  0  0  0  0  0  0  0
   -2.4287    2.1701   -0.2343 C   0  0  0  0  0  0  0  0  0  0  0  0
   -2.1649    3.0738   -1.4331 C   0  0  0  0  0  0  0  0  0  0  0  0
   -0.3368   -0.9649   -0.8820 C   0  0  0  0  0  0  0  0  0  0  0  0
   -1.1036   -1.5819   -1.8861 C   0  0  0  0  0  0  0  0  0  0  0  0
   -0.7722   -2.8532   -2.3565 C   0  0  0  0  0  0  0  0  0  0  0  0
    0.3292   -3.5265   -1.8330 C   0  0  0  0  0  0  0  0  0  0  0  0
    1.0903   -2.9416   -0.8203 C   0  0  0  0  0  0  0  0  0  0  0  0
    0.7610   -1.6694   -0.3165 C   0  0  0  0  0  0  0  0  0  0  0  0
    1.5303   -1.1502    0.8366 C   0  0  0  0  0  0  0  0  0  0  0  0
    0.8810   -0.4171    1.8380 O   0  0  0  0  0  0  0  0  0  0  0  0
    1.5538    0.1475    2.9615 C   0  0  0  0  0  0  0  0  0  0  0  0
    2.3176    1.4027    2.5555 C   0  0  0  0  0  0  0  0  0  0  0  0
    2.7592   -1.4178    0.9407 O   0  0  0  0  0  0  0  0  0  0  0  0
  1  2  2  0
  2  6  1  0
  2  3  1  0
  3  4  1  0
  4  5  1  0
  6  7  2  0
  6 11  1  0
  7  8  1  0
  8  9  2  0
  9 10  1  0
 10 11  2  0
 11 12  1  0
 12 16  2  0
 12 13  1  0
 13 14  1  0
 14 15  1  0
M  END
$$$$
