O=C(OCCCC)c1ccccc1C(OCCCC)=O
     RDKit          3D

 20 20  0  0  0  0  0  0  0  0999 V2000
    0.4697    1.0145    0.1971 O   0  0  0  0  0  0  0  0  0  0  0  0
    1.1571   -0.0434    0.1763 C   0  0  0  0  0  0  0  0  0  0  0  0
    2.5350    0.0197   -0.0556 O   0  0  0  0  0  0  0  0  0  0  0  0
    3.2172    1.2433   -0.3092 C   0  0  0  0  0  0  0  0  0  0  0  0
    4.7030    0.9612   -0.5209 C   0  0  0  0  0  0  0  0  0  0  0  0
    5.4774    2.2548   -0.7972 C   0  0  0  0  0  0  0  0  0  0  0  0
    6.9620    1.9732   -1.0091 C   0  0  0  0  0  0  0  0  0  0  0  0
    0.5251   -1.3522    0.4585 C   0  0  0  0  0  0  0  0  0  0  0  0
    1.2772   -2.3050    1.1697 C   0  0  0  0  0  0  0  0  0  0  0  0
    0.7071   -3.5168    1.5611 C   0  0  0  0  0  0  0  0  0  0  0  0
   -0.6215   -3.7964    1.2503 C   0  0  0  0  0  0  0  0  0  0  0  0
   -1.3792   -2.8758    0.5257 C   0  0  0  0  0  0  0  0  0  0  0  0
   -0.8180   -1.6580    0.1003 C   0  0  0  0  0  0  0  0  0  0  0  0
   -1.6432   -0.7799   -0.7597 C   0  0  0  0  0  0  0  0  0  0  0  0
   -3.0293   -0.7457   -0.5777 O   0  0  0  0  0  0  0  0  0  0  0  0
   -3.8909    0.0657   -1.3703 C   0  0  0  0  0  0  0  0  0  0  0  0
   -5.3438   -0.1085   -0.9195 C   0  0  0  0  0  0  0  0  0  0  0  0
   -5.5716    0.2433    0.5601 C   0  0  0  0  0  0  0  0  0  0  0  0
   -5.3987    1.7342    0.8481 C   0  0  0  0  0  0  0  0  0  0  0  0
   -1.1092   -0.1064   -1.6835 O   0  0  0  0  0  0  0  0  0  0  0  0
  1  2  2  0
  2  8  1  0
  2  3  1  0
  3  4  1  0
  4  5  1  0
  5  6  1  0
  6  7  1  0
  8  9  2  0
  8 13  1  0
  9 10  1  0
 10 11  2  0
 11 12  1  0
 12 13  2  0
 13 14  1  0
 14 20  2  0
 14 15  1  0
 15 16  1  0
 16 17  1  0
 17 18  1  0
 18 19  1  0
M  END
$$$$
