c12c(cccn3)c3ccc1cccc2
     RDKit          3D

 14 16  0  0  0  0  0  0  0  0999 V2000
    0.4859    0.4100    0.0114 C   0  0  0  0  0  0  0  0  0  0  0  0
   -0.8986    0.0670    0.0731 C   0  0  0  0  0  0  0  0  0  0  0  0
   -1.9316    1.0153    0.2567 C   0  0  0  0  0  0  0  0  0  0  0  0
   -3.2656    0.6093    0.3075 C   0  0  0  0  0  0  0  0  0  0  0  0
   -3.5798   -0.7399    0.1763 C   0  0  0  0  0  0  0  0  0  0  0  0
   -2.5918   -1.6523    0.0001 N   0  0  0  0  0  0  0  0  0  0  0  0
   -1.2801   -1.2955   -0.0547 C   0  0  0  0  0  0  0  0  0  0  0  0
   -0.3174   -2.2877   -0.2382 C   0  0  0  0  0  0  0  0  0  0  0  0
    1.0321   -1.9585   -0.2989 C   0  0  0  0  0  0  0  0  0  0  0  0
    1.4452   -0.6261   -0.1768 C   0  0  0  0  0  0  0  0  0  0  0  0
    2.8142   -0.3205   -0.2417 C   0  0  0  0  0  0  0  0  0  0  0  0
    3.2485    0.9979   -0.1227 C   0  0  0  0  0  0  0  0  0  0  0  0
    2.3242    2.0230    0.0618 C   0  0  0  0  0  0  0  0  0  0  0  0
    0.9578    1.7400    0.1290 C   0  0  0  0  0  0  0  0  0  0  0  0
  1  2  1  0
  1 10  2  0
  1 14  1  0
  2  3  2  0
  2  7  1  0
  3  4  1  0
  4  5  2  0
  5  6  1  0
  6  7  2  0
  7  8  1  0
  8  9  2  0
  9 10  1  0
 10 11  1  0
 11 12  2  0
 12 13  1  0
 13 14  2  0
M  END
$$$$
