O=C(O)Cc(c(Cl)ccc1Cl)c1Cl
     RDKit          3D

 13 13  0  0  0  0  0  0  0  0999 V2000
   -2.1937   -1.5238    1.3454 O   0  0  0  0  0  0  0  0  0  0  0  0
   -2.3465   -0.5324    0.5841 C   0  0  0  0  0  0  0  0  0  0  0  0
   -3.2859    0.4410    0.9130 O   0  0  0  0  0  0  0  0  0  0  0  0
   -1.5159   -0.4116   -0.6592 C   0  0  0  0  0  0  0  0  0  0  0  0
   -0.0635   -0.1598   -0.3077 C   0  0  0  0  0  0  0  0  0  0  0  0
    0.8523   -1.2361   -0.2152 C   0  0  0  0  0  0  0  0  0  0  0  0
    0.3699   -2.9100   -0.4820 Cl  0  0  0  0  0  0  0  0  0  0  0  0
    2.1886   -0.9939    0.1141 C   0  0  0  0  0  0  0  0  0  0  0  0
    2.6319    0.3026    0.3615 C   0  0  0  0  0  0  0  0  0  0  0  0
    1.7439    1.3765    0.2892 C   0  0  0  0  0  0  0  0  0  0  0  0
    2.3546    2.9932    0.6218 Cl  0  0  0  0  0  0  0  0  0  0  0  0
    0.3940    1.1555   -0.0407 C   0  0  0  0  0  0  0  0  0  0  0  0
   -0.7088    2.5344   -0.1095 Cl  0  0  0  0  0  0  0  0  0  0  0  0
  1  2  2  0
  2  4  1  0
  2  3  1  0
  4  5  1  0
  5  6  2  0
  5 12  1  0
  6  8  1  0
  6  7  1  0
  8  9  2  0
  9 10  1  0
 10 12  2  0
 10 11  1  0
 12 13  1  0
M  END
$$$$
