O=C(O2)c1ccccc1C2=O
     RDKit          3D

 11 12  0  0  0  0  0  0  0  0999 V2000
   -2.5990   -1.9542   -0.2418 O   0  0  0  0  0  0  0  0  0  0  0  0
   -2.0322   -0.8341   -0.1512 C   0  0  0  0  0  0  0  0  0  0  0  0
   -2.7064    0.3857   -0.1198 O   0  0  0  0  0  0  0  0  0  0  0  0
   -0.5947   -0.6086   -0.0641 C   0  0  0  0  0  0  0  0  0  0  0  0
    0.4773   -1.4991   -0.0569 C   0  0  0  0  0  0  0  0  0  0  0  0
    1.7754   -0.9652    0.0398 C   0  0  0  0  0  0  0  0  0  0  0  0
    1.9706    0.4313    0.1260 C   0  0  0  0  0  0  0  0  0  0  0  0
    0.8696    1.3071    0.1165 C   0  0  0  0  0  0  0  0  0  0  0  0
   -0.4046    0.7510    0.0199 C   0  0  0  0  0  0  0  0  0  0  0  0
   -1.7242    1.3694   -0.0151 C   0  0  0  0  0  0  0  0  0  0  0  0
   -1.9618    2.6042    0.0399 O   0  0  0  0  0  0  0  0  0  0  0  0
  1  2  2  0
  2  4  1  0
  2  3  1  0
  3 10  1  0
  4  5  2  0
  4  9  1  0
  5  6  1  0
  6  7  2  0
  7  8  1  0
  8  9  2  0
  9 10  1  0
 10 11  2  0
M  END
$$$$
