CCCCOc2cc(C(NCCN(CC)CC)=O)c1ccccc1n2
     RDKit          3D

 25 26  0  0  0  0  0  0  0  0999 V2000
    6.1609    3.7831   -0.3327 C   0  0  0  0  0  0  0  0  0  0  0  0
    5.4200    2.6759   -1.0816 C   0  0  0  0  0  0  0  0  0  0  0  0
    4.0683    2.3255   -0.4426 C   0  0  0  0  0  0  0  0  0  0  0  0
    4.2178    1.6667    0.9351 C   0  0  0  0  0  0  0  0  0  0  0  0
    2.9533    1.2061    1.4088 O   0  0  0  0  0  0  0  0  0  0  0  0
    2.3251    0.0485    0.9349 C   0  0  0  0  0  0  0  0  0  0  0  0
    1.0476   -0.2736    1.3945 C   0  0  0  0  0  0  0  0  0  0  0  0
    0.3983   -1.4256    0.9258 C   0  0  0  0  0  0  0  0  0  0  0  0
   -0.9840   -1.6800    1.3835 C   0  0  0  0  0  0  0  0  0  0  0  0
   -2.0363   -1.8987    0.4320 N   0  0  0  0  0  0  0  0  0  0  0  0
   -3.4304   -2.0982    0.8256 C   0  0  0  0  0  0  0  0  0  0  0  0
   -4.0568   -0.7861    1.3211 C   0  0  0  0  0  0  0  0  0  0  0  0
   -3.8064    0.3356    0.3869 N   0  0  0  0  0  0  0  0  0  0  0  0
   -4.4247    0.1813   -0.9545 C   0  0  0  0  0  0  0  0  0  0  0  0
   -5.9281   -0.1306   -0.9271 C   0  0  0  0  0  0  0  0  0  0  0  0
   -4.0859    1.6563    0.9942 C   0  0  0  0  0  0  0  0  0  0  0  0
   -2.9392    2.6122    0.6869 C   0  0  0  0  0  0  0  0  0  0  0  0
   -1.2412   -1.6457    2.6172 O   0  0  0  0  0  0  0  0  0  0  0  0
    1.0757   -2.2777    0.0188 C   0  0  0  0  0  0  0  0  0  0  0  0
    0.5350   -3.5019   -0.4288 C   0  0  0  0  0  0  0  0  0  0  0  0
    1.2436   -4.3001   -1.3318 C   0  0  0  0  0  0  0  0  0  0  0  0
    2.4998   -3.9003   -1.7902 C   0  0  0  0  0  0  0  0  0  0  0  0
    3.0638   -2.7072   -1.3349 C   0  0  0  0  0  0  0  0  0  0  0  0
    2.3676   -1.9014   -0.4267 C   0  0  0  0  0  0  0  0  0  0  0  0
    2.9458   -0.7638    0.0381 N   0  0  0  0  0  0  0  0  0  0  0  0
  1  2  1  0
  2  3  1  0
  3  4  1  0
  4  5  1  0
  5  6  1  0
  6  7  2  0
  6 25  1  0
  7  8  1  0
  8 19  2  0
  8  9  1  0
  9 10  1  0
  9 18  2  0
 10 11  1  0
 11 12  1  0
 12 13  1  0
 13 14  1  0
 13 16  1  0
 14 15  1  0
 16 17  1  0
 19 20  1  0
 19 24  1  0
 20 21  2  0
 21 22  1  0
 22 23  2  0
 23 24  1  0
 24 25  2  0
M  END
$$$$
