c1(cccc3)c3Cc2c1cccc2
     RDKit          3D

 13 15  0  0  0  0  0  0  0  0999 V2000
   -0.7073   -0.4774   -0.1319 C   0  0  0  0  0  0  0  0  0  0  0  0
   -1.5723   -1.5483   -0.3590 C   0  0  0  0  0  0  0  0  0  0  0  0
   -2.9477   -1.2806   -0.4535 C   0  0  0  0  0  0  0  0  0  0  0  0
   -3.4277    0.0378   -0.3206 C   0  0  0  0  0  0  0  0  0  0  0  0
   -2.5360    1.0997   -0.0922 C   0  0  0  0  0  0  0  0  0  0  0  0
   -1.1720    0.8185   -0.0006 C   0  0  0  0  0  0  0  0  0  0  0  0
   -0.0489    1.7864    0.2372 C   0  0  0  0  0  0  0  0  0  0  0  0
    1.1262    0.8516    0.2223 C   0  0  0  0  0  0  0  0  0  0  0  0
    0.7327   -0.4567    0.0078 C   0  0  0  0  0  0  0  0  0  0  0  0
    1.6554   -1.5017   -0.0460 C   0  0  0  0  0  0  0  0  0  0  0  0
    3.0151   -1.1946    0.1248 C   0  0  0  0  0  0  0  0  0  0  0  0
    3.4228    0.1366    0.3438 C   0  0  0  0  0  0  0  0  0  0  0  0
    2.4738    1.1720    0.3938 C   0  0  0  0  0  0  0  0  0  0  0  0
  1  2  2  0
  1  6  1  0
  1  9  1  0
  2  3  1  0
  3  4  2  0
  4  5  1  0
  5  6  2  0
  6  7  1  0
  7  8  1  0
  8 13  1  0
  8  9  2  0
  9 10  1  0
 10 11  2  0
 11 12  1  0
 12 13  2  0
M  END
$$$$
