
     RDKit          3D

 14 15  0  0  0  0  0  0  0  0999 V2000
    3.0319   -0.1325   -1.4046 O   0  0  0  0  0  0  0  0  0  0  0  0
    2.7471   -0.8060   -0.2205 C   0  0  0  0  0  0  0  0  0  0  0  0
    2.1203   -0.0719    0.9243 C   0  0  0  0  0  0  0  0  0  0  0  0
    0.8280    0.5904    0.4958 C   0  0  0  0  0  0  0  0  0  0  0  0
    0.8206    1.9862    0.3223 C   0  0  0  0  0  0  0  0  0  0  0  0
   -0.3353    2.6519   -0.0823 C   0  0  0  0  0  0  0  0  0  0  0  0
   -1.5082    1.9412   -0.3234 C   0  0  0  0  0  0  0  0  0  0  0  0
   -1.5373    0.5499   -0.1605 C   0  0  0  0  0  0  0  0  0  0  0  0
   -2.7249   -0.1576   -0.4060 C   0  0  0  0  0  0  0  0  0  0  0  0
   -2.7650   -1.5426   -0.2452 C   0  0  0  0  0  0  0  0  0  0  0  0
   -1.6244   -2.2332    0.1619 C   0  0  0  0  0  0  0  0  0  0  0  0
   -0.4341   -1.5454    0.4108 C   0  0  0  0  0  0  0  0  0  0  0  0
   -0.3664   -0.1437    0.2528 C   0  0  0  0  0  0  0  0  0  0  0  0
    3.0395   -2.0263   -0.1053 O   0  0  0  0  0  0  0  0  0  0  0  0
  1  2  1  0
  2  3  1  0
  2 14  2  0
  3  4  1  0
  4  5  2  0
  4 13  1  0
  5  6  1  0
  6  7  2  0
  7  8  1  0
  8  9  1  0
  8 13  2  0
  9 10  2  0
 10 11  1  0
 11 12  2  0
 12 13  1  0
M  END
$$$$
