Clc(c(Cl)ccc1)c1Cl
     RDKit          3D

  9  9  0  0  0  0  0  0  0  0999 V2000
    1.0459    2.8766    0.1566 Cl  0  0  0  0  0  0  0  0  0  0  0  0
    0.4442    1.2216    0.0665 C   0  0  0  0  0  0  0  0  0  0  0  0
   -0.9407    0.9726    0.0217 C   0  0  0  0  0  0  0  0  0  0  0  0
   -2.1077    2.2884    0.0536 Cl  0  0  0  0  0  0  0  0  0  0  0  0
   -1.4118   -0.3434   -0.0498 C   0  0  0  0  0  0  0  0  0  0  0  0
   -0.5133   -1.4117   -0.0769 C   0  0  0  0  0  0  0  0  0  0  0  0
    0.8613   -1.1708   -0.0327 C   0  0  0  0  0  0  0  0  0  0  0  0
    1.3454    0.1405    0.0389 C   0  0  0  0  0  0  0  0  0  0  0  0
    3.0846    0.3984    0.0927 Cl  0  0  0  0  0  0  0  0  0  0  0  0
  1  2  1  0
  2  3  2  0
  2  8  1  0
  3  5  1  0
  3  4  1  0
  5  6  2  0
  6  7  1  0
  7  8  2  0
  8  9  1  0
M  END
$$$$
