OC1COC(O)C(O)C1O
     RDKit          3D

 10 10  0  0  1  0  0  0  0  0999 V2000
    1.7171   -0.6176    1.4625 O   0  0  0  0  0  0  0  0  0  0  0  0
    1.4170   -0.0082    0.2330 C   0  0  2  0  0  0  0  0  0  0  0  0
    0.8518    1.3957    0.4904 C   0  0  0  0  0  0  0  0  0  0  0  0
   -0.3695    1.3402    1.2076 O   0  0  0  0  0  0  0  0  0  0  0  0
   -1.3779    0.6767    0.4579 C   0  0  1  0  0  0  0  0  0  0  0  0
   -1.6776    1.3773   -0.7239 O   0  0  0  0  0  0  0  0  0  0  0  0
   -0.9845   -0.7825    0.1514 C   0  0  1  0  0  0  0  0  0  0  0  0
   -1.9734   -1.3824   -0.6453 O   0  0  0  0  0  0  0  0  0  0  0  0
    0.3882   -0.8514   -0.5452 C   0  0  1  0  0  0  0  0  0  0  0  0
    0.2775   -0.3830   -1.8661 O   0  0  0  0  0  0  0  0  0  0  0  0
  2  1  1  1
  2  3  1  0
  2  9  1  0
  3  4  1  0
  4  5  1  0
  5  7  1  0
  5  6  1  6
  7  9  1  0
  7  8  1  6
  9 10  1  6
M  END
$$$$
