Oc1c(Cl)c(Cl)c(Cl)c(Cl)c1Cl
     RDKit          3D

 12 12  0  0  0  0  0  0  0  0999 V2000
    2.2666    1.2160   -0.0623 O   0  0  0  0  0  0  0  0  0  0  0  0
    1.0273    0.5711   -0.0302 C   0  0  0  0  0  0  0  0  0  0  0  0
   -0.1378    1.3441   -0.1358 C   0  0  0  0  0  0  0  0  0  0  0  0
    0.0039    3.0935   -0.3045 Cl  0  0  0  0  0  0  0  0  0  0  0  0
   -1.4007    0.7296   -0.1073 C   0  0  0  0  0  0  0  0  0  0  0  0
   -2.8619    1.7107   -0.2410 Cl  0  0  0  0  0  0  0  0  0  0  0  0
   -1.4980   -0.6662    0.0276 C   0  0  0  0  0  0  0  0  0  0  0  0
   -3.0841   -1.4407    0.0637 Cl  0  0  0  0  0  0  0  0  0  0  0  0
   -0.3318   -1.4450    0.1339 C   0  0  0  0  0  0  0  0  0  0  0  0
   -0.4553   -3.1982    0.3033 Cl  0  0  0  0  0  0  0  0  0  0  0  0
    0.9322   -0.8280    0.1051 C   0  0  0  0  0  0  0  0  0  0  0  0
    2.3915   -1.8115    0.2390 Cl  0  0  0  0  0  0  0  0  0  0  0  0
  1  2  1  0
  2 11  2  0
  2  3  1  0
  3  4  1  0
  3  5  2  0
  5  7  1  0
  5  6  1  0
  7  9  2  0
  7  8  1  0
  9 11  1  0
  9 10  1  0
 11 12  1  0
M  END
$$$$
