CN1C(CCC1)=O
     RDKit          3D

  7  7  0  0  0  0  0  0  0  0999 V2000
    2.1104    0.4637   -0.4301 C   0  0  0  0  0  0  0  0  0  0  0  0
    0.7081    0.1868   -0.1425 N   0  0  0  0  0  0  0  0  0  0  0  0
   -0.2726    1.1662    0.1256 C   0  0  0  0  0  0  0  0  0  0  0  0
   -1.6066    0.5899    0.3813 C   0  0  0  0  0  0  0  0  0  0  0  0
   -1.3734   -0.9247    0.2444 C   0  0  0  0  0  0  0  0  0  0  0  0
    0.1176   -1.1372   -0.0904 C   0  0  0  0  0  0  0  0  0  0  0  0
   -0.0260    2.4015    0.1428 O   0  0  0  0  0  0  0  0  0  0  0  0
  1  2  1  0
  2  6  1  0
  2  3  1  0
  3  4  1  0
  3  7  2  0
  4  5  1  0
  5  6  1  0
M  END
$$$$
