CCc1cccs1
     RDKit          3D

  7  7  0  0  0  0  0  0  0  0999 V2000
   -2.1380    0.1922    0.6351 C   0  0  0  0  0  0  0  0  0  0  0  0
   -1.3541    0.2520   -0.6719 C   0  0  0  0  0  0  0  0  0  0  0  0
    0.1210    0.1909   -0.4189 C   0  0  0  0  0  0  0  0  0  0  0  0
    0.8171   -0.8921    0.1043 C   0  0  0  0  0  0  0  0  0  0  0  0
    2.1937   -0.6611    0.2127 C   0  0  0  0  0  0  0  0  0  0  0  0
    2.5845    0.5974   -0.2268 C   0  0  0  0  0  0  0  0  0  0  0  0
    1.2160    1.4229   -0.7514 S   0  0  0  0  0  0  0  0  0  0  0  0
  1  2  1  0
  2  3  1  0
  3  4  2  0
  3  7  1  0
  4  5  1  0
  5  6  2  0
  6  7  1  0
M  END
$$$$
