Clc(c(C)cc(O)c1)c1C
     RDKit          3D

 10 10  0  0  0  0  0  0  0  0999 V2000
    0.0045   -2.8010    0.0342 Cl  0  0  0  0  0  0  0  0  0  0  0  0
   -0.0258   -1.0332    0.0123 C   0  0  0  0  0  0  0  0  0  0  0  0
   -1.2597   -0.3471   -0.0092 C   0  0  0  0  0  0  0  0  0  0  0  0
   -2.5622   -1.1006   -0.0139 C   0  0  0  0  0  0  0  0  0  0  0  0
   -1.2710    1.0566   -0.0264 C   0  0  0  0  0  0  0  0  0  0  0  0
   -0.0756    1.7768   -0.0225 C   0  0  0  0  0  0  0  0  0  0  0  0
   -0.1138    3.1695   -0.0398 O   0  0  0  0  0  0  0  0  0  0  0  0
    1.1472    1.0983   -0.0012 C   0  0  0  0  0  0  0  0  0  0  0  0
    1.1840   -0.3050    0.0163 C   0  0  0  0  0  0  0  0  0  0  0  0
    2.5114   -1.0133    0.0391 C   0  0  0  0  0  0  0  0  0  0  0  0
  1  2  1  0
  2  3  2  0
  2  9  1  0
  3  4  1  0
  3  5  1  0
  5  6  2  0
  6  8  1  0
  6  7  1  0
  8  9  2  0
  9 10  1  0
M  END
$$$$
