Oc(c(Cl)cc(Cl)c1)c1Cl
     RDKit          3D

 10 10  0  0  0  0  0  0  0  0999 V2000
   -2.5194    0.1910   -0.0470 O   0  0  0  0  0  0  0  0  0  0  0  0
   -1.1259    0.1060   -0.0177 C   0  0  0  0  0  0  0  0  0  0  0  0
   -0.4605   -1.1246   -0.1953 C   0  0  0  0  0  0  0  0  0  0  0  0
   -1.3451   -2.6206   -0.4634 Cl  0  0  0  0  0  0  0  0  0  0  0  0
    0.9383   -1.1720   -0.1597 C   0  0  0  0  0  0  0  0  0  0  0  0
    1.6786   -0.0053    0.0509 C   0  0  0  0  0  0  0  0  0  0  0  0
    3.4310   -0.0736    0.0940 Cl  0  0  0  0  0  0  0  0  0  0  0  0
    1.0221    1.2156    0.2273 C   0  0  0  0  0  0  0  0  0  0  0  0
   -0.3752    1.2738    0.1935 C   0  0  0  0  0  0  0  0  0  0  0  0
   -1.1765    2.8213    0.4179 Cl  0  0  0  0  0  0  0  0  0  0  0  0
  1  2  1  0
  2  3  2  0
  2  9  1  0
  3  5  1  0
  3  4  1  0
  5  6  2  0
  6  8  1  0
  6  7  1  0
  8  9  2  0
  9 10  1  0
M  END
$$$$
