NC(c(cccc1)c1C(N)=O)=O
     RDKit          3D

 12 12  0  0  0  0  0  0  0  0999 V2000
   -1.8101   -2.2083    1.3256 N   0  0  0  0  0  0  0  0  0  0  0  0
   -0.7330   -1.2694    1.3472 C   0  0  0  0  0  0  0  0  0  0  0  0
   -0.6063   -0.2364    0.2913 C   0  0  0  0  0  0  0  0  0  0  0  0
   -1.7720    0.4134   -0.1545 C   0  0  0  0  0  0  0  0  0  0  0  0
   -1.6994    1.4479   -1.0879 C   0  0  0  0  0  0  0  0  0  0  0  0
   -0.4639    1.8514   -1.5891 C   0  0  0  0  0  0  0  0  0  0  0  0
    0.7041    1.2154   -1.1671 C   0  0  0  0  0  0  0  0  0  0  0  0
    0.6535    0.1644   -0.2329 C   0  0  0  0  0  0  0  0  0  0  0  0
    1.9148   -0.5329    0.1152 C   0  0  0  0  0  0  0  0  0  0  0  0
    3.1269    0.1999    0.3040 N   0  0  0  0  0  0  0  0  0  0  0  0
    1.9324   -1.7886    0.2223 O   0  0  0  0  0  0  0  0  0  0  0  0
    0.0997   -1.3106    2.2923 O   0  0  0  0  0  0  0  0  0  0  0  0
  1  2  1  0
  2  3  1  0
  2 12  2  0
  3  4  2  0
  3  8  1  0
  4  5  1  0
  5  6  2  0
  6  7  1  0
  7  8  2  0
  8  9  1  0
  9 10  1  0
  9 11  2  0
M  END
$$$$
