Cc1c(cccc2)c2ccc1
     RDKit          3D

 11 12  0  0  0  0  0  0  0  0999 V2000
   -1.3303    2.3150   -0.2196 C   0  0  0  0  0  0  0  0  0  0  0  0
   -1.1276    0.8302   -0.0542 C   0  0  0  0  0  0  0  0  0  0  0  0
    0.1671    0.2476   -0.0352 C   0  0  0  0  0  0  0  0  0  0  0  0
    1.3386    1.0235   -0.1698 C   0  0  0  0  0  0  0  0  0  0  0  0
    2.5977    0.4183   -0.1468 C   0  0  0  0  0  0  0  0  0  0  0  0
    2.7125   -0.9628    0.0098 C   0  0  0  0  0  0  0  0  0  0  0  0
    1.5686   -1.7504    0.1448 C   0  0  0  0  0  0  0  0  0  0  0  0
    0.2955   -1.1591    0.1239 C   0  0  0  0  0  0  0  0  0  0  0  0
   -0.8492   -1.9562    0.2601 C   0  0  0  0  0  0  0  0  0  0  0  0
   -2.1156   -1.3755    0.2402 C   0  0  0  0  0  0  0  0  0  0  0  0
   -2.2558    0.0034    0.0848 C   0  0  0  0  0  0  0  0  0  0  0  0
  1  2  1  0
  2 11  2  0
  2  3  1  0
  3  4  2  0
  3  8  1  0
  4  5  1  0
  5  6  2  0
  6  7  1  0
  7  8  2  0
  8  9  1  0
  9 10  2  0
 10 11  1  0
M  END
$$$$
