C12CCCCN1CC(C(CCCC4)N4C3)CC23
     RDKit          3D

 17 20  0  0  1  0  0  0  0  0999 V2000
    1.7854   -0.3767    0.9020 C   0  0  1  0  0  0  0  0  0  0  0  0
    1.6344   -1.5692   -0.0773 C   0  0  0  0  0  0  0  0  0  0  0  0
    2.7853   -1.6034   -1.0805 C   0  0  0  0  0  0  0  0  0  0  0  0
    2.8726   -0.2753   -1.8275 C   0  0  0  0  0  0  0  0  0  0  0  0
    3.0361    0.8839   -0.8376 C   0  0  0  0  0  0  0  0  0  0  0  0
    1.9689    0.9142    0.1844 N   0  0  0  0  0  0  0  0  0  0  0  0
    0.7048    1.5097   -0.2968 C   0  0  0  0  0  0  0  0  0  0  0  0
   -0.3211    1.6975    0.8669 C   0  0  1  0  0  0  0  0  0  0  0  0
   -1.6365    0.9082    0.6183 C   0  0  1  0  0  0  0  0  0  0  0  0
   -2.4083    1.4414   -0.6240 C   0  0  0  0  0  0  0  0  0  0  0  0
   -2.6429    0.3530   -1.6768 C   0  0  0  0  0  0  0  0  0  0  0  0
   -3.2689   -0.8964   -1.0478 C   0  0  0  0  0  0  0  0  0  0  0  0
   -2.5837   -1.3073    0.2721 C   0  0  0  0  0  0  0  0  0  0  0  0
   -1.3411   -0.5436    0.5026 N   0  0  0  0  0  0  0  0  0  0  0  0
   -0.6489   -1.0537    1.7089 C   0  0  0  0  0  0  0  0  0  0  0  0
    0.2771    1.2072    2.1956 C   0  0  0  0  0  0  0  0  0  0  0  0
    0.6576   -0.2661    1.9976 C   0  0  2  0  0  0  0  0  0  0  0  0
  1  2  1  6
  1 17  1  0
  1  6  1  0
  2  3  1  0
  3  4  1  0
  4  5  1  0
  6  5  1  0
  6  7  1  0
  8  7  1  6
  8 16  1  0
  8  9  1  0
  9 10  1  6
  9 14  1  0
 10 11  1  0
 11 12  1  0
 12 13  1  0
 14 13  1  0
 14 15  1  0
 17 15  1  6
 16 17  1  0
M  END
$$$$
