Oc(cccc2)c2c1ccccc1
     RDKit          3D

 13 14  0  0  0  0  0  0  0  0999 V2000
   -0.8430   -0.8565    2.1036 O   0  0  0  0  0  0  0  0  0  0  0  0
   -1.4600   -0.3620    0.9543 C   0  0  0  0  0  0  0  0  0  0  0  0
   -2.8600   -0.2959    0.8894 C   0  0  0  0  0  0  0  0  0  0  0  0
   -3.4898    0.2266   -0.2419 C   0  0  0  0  0  0  0  0  0  0  0  0
   -2.7272    0.6878   -1.3158 C   0  0  0  0  0  0  0  0  0  0  0  0
   -1.3326    0.6228   -1.2641 C   0  0  0  0  0  0  0  0  0  0  0  0
   -0.6838    0.0910   -0.1347 C   0  0  0  0  0  0  0  0  0  0  0  0
    0.7974    0.0208   -0.1055 C   0  0  0  0  0  0  0  0  0  0  0  0
    1.5678    1.1454   -0.4524 C   0  0  0  0  0  0  0  0  0  0  0  0
    2.9644    1.0781   -0.4342 C   0  0  0  0  0  0  0  0  0  0  0  0
    3.6041   -0.1111   -0.0759 C   0  0  0  0  0  0  0  0  0  0  0  0
    2.8483   -1.2363    0.2623 C   0  0  0  0  0  0  0  0  0  0  0  0
    1.4514   -1.1739    0.2462 C   0  0  0  0  0  0  0  0  0  0  0  0
  1  2  1  0
  2  3  2  0
  2  7  1  0
  3  4  1  0
  4  5  2  0
  5  6  1  0
  6  7  2  0
  7  8  1  0
  8 13  1  0
  8  9  2  0
  9 10  1  0
 10 11  2  0
 11 12  1  0
 12 13  2  0
M  END
$$$$
