c12ccccc1cccc2
     RDKit          3D

 10 11  0  0  0  0  0  0  0  0999 V2000
    0.0801   -0.6950   -0.1126 C   0  0  0  0  0  0  0  0  0  0  0  0
   -1.0531   -1.5078   -0.2715 C   0  0  0  0  0  0  0  0  0  0  0  0
   -2.3324   -0.9477   -0.2077 C   0  0  0  0  0  0  0  0  0  0  0  0
   -2.4904    0.4231    0.0144 C   0  0  0  0  0  0  0  0  0  0  0  0
   -1.3703    1.2441    0.1744 C   0  0  0  0  0  0  0  0  0  0  0  0
   -0.0801    0.6950    0.1126 C   0  0  0  0  0  0  0  0  0  0  0  0
    1.0531    1.5078    0.2715 C   0  0  0  0  0  0  0  0  0  0  0  0
    2.3324    0.9477    0.2077 C   0  0  0  0  0  0  0  0  0  0  0  0
    2.4904   -0.4231   -0.0144 C   0  0  0  0  0  0  0  0  0  0  0  0
    1.3703   -1.2441   -0.1744 C   0  0  0  0  0  0  0  0  0  0  0  0
  1  6  1  0
  1 10  1  0
  1  2  2  0
  2  3  1  0
  3  4  2  0
  4  5  1  0
  5  6  2  0
  6  7  1  0
  7  8  2  0
  8  9  1  0
  9 10  2  0
M  END
$$$$
