c1(cccn2)c2cccc1
     RDKit          3D

 10 11  0  0  0  0  0  0  0  0999 V2000
    0.0056   -0.5809    0.0070 C   0  0  0  0  0  0  0  0  0  0  0  0
    1.1370   -1.4068    0.0196 C   0  0  0  0  0  0  0  0  0  0  0  0
    2.4119   -0.8365    0.0157 C   0  0  0  0  0  0  0  0  0  0  0  0
    2.5440    0.5545   -0.0008 C   0  0  0  0  0  0  0  0  0  0  0  0
    1.4386    1.3466   -0.0129 N   0  0  0  0  0  0  0  0  0  0  0  0
    0.1833    0.8216   -0.0095 C   0  0  0  0  0  0  0  0  0  0  0  0
   -0.9329    1.6659   -0.0223 C   0  0  0  0  0  0  0  0  0  0  0  0
   -2.2213    1.1216   -0.0187 C   0  0  0  0  0  0  0  0  0  0  0  0
   -2.3994   -0.2658   -0.0024 C   0  0  0  0  0  0  0  0  0  0  0  0
   -1.2903   -1.1181    0.0105 C   0  0  0  0  0  0  0  0  0  0  0  0
  1  6  1  0
  1  2  2  0
  1 10  1  0
  2  3  1  0
  3  4  2  0
  4  5  1  0
  5  6  2  0
  6  7  1  0
  7  8  2  0
  8  9  1  0
  9 10  2  0
M  END
$$$$
