O=C2C=Cc1ccccc1O2
     RDKit          3D

 11 12  0  0  0  0  0  0  0  0999 V2000
   -3.5113   -1.3963   -0.4393 O   0  0  0  0  0  0  0  0  0  0  0  0
   -2.4356   -0.7689   -0.2558 C   0  0  0  0  0  0  0  0  0  0  0  0
   -2.4679    0.5900    0.0764 C   0  0  0  0  0  0  0  0  0  0  0  0
   -1.2646    1.2663    0.2754 C   0  0  0  0  0  0  0  0  0  0  0  0
   -0.0578    0.5736    0.1390 C   0  0  0  0  0  0  0  0  0  0  0  0
    1.1791    1.2070    0.3284 C   0  0  0  0  0  0  0  0  0  0  0  0
    2.3641    0.4783    0.1826 C   0  0  0  0  0  0  0  0  0  0  0  0
    2.3192   -0.8796   -0.1515 C   0  0  0  0  0  0  0  0  0  0  0  0
    1.0889   -1.5173   -0.3418 C   0  0  0  0  0  0  0  0  0  0  0  0
   -0.1028   -0.7979   -0.1984 C   0  0  0  0  0  0  0  0  0  0  0  0
   -1.2732   -1.4049   -0.3795 O   0  0  0  0  0  0  0  0  0  0  0  0
  1  2  2  0
  2  3  1  0
  2 11  1  0
  3  4  2  0
  4  5  1  0
  5  6  1  0
  5 10  2  0
  6  7  2  0
  7  8  1  0
  8  9  2  0
  9 10  1  0
 10 11  1  0
M  END
$$$$
