
     RDKit          3D

 20 22  0  0  0  0  0  0  0  0999 V2000
   -2.0182   -1.2220   -0.2338 C   0  0  0  0  0  0  0  0  0  0  0  0
   -0.5252   -1.2927   -0.1772 C   0  0  0  0  0  0  0  0  0  0  0  0
    0.0504    0.0428   -0.3835 N   0  0  0  0  0  0  0  0  0  0  0  0
   -0.2135    1.0998    0.5586 C   0  0  0  0  0  0  0  0  0  0  0  0
    0.0396    0.9157    1.9284 C   0  0  0  0  0  0  0  0  0  0  0  0
   -0.2338    1.9405    2.8393 C   0  0  0  0  0  0  0  0  0  0  0  0
   -0.7628    3.1537    2.3910 C   0  0  0  0  0  0  0  0  0  0  0  0
   -1.0185    3.3443    1.0305 C   0  0  0  0  0  0  0  0  0  0  0  0
   -0.7455    2.3222    0.1165 C   0  0  0  0  0  0  0  0  0  0  0  0
    0.9488    0.2789   -1.5200 C   0  0  0  0  0  0  0  0  0  0  0  0
    2.2833   -0.3692   -1.2674 C   0  0  0  0  0  0  0  0  0  0  0  0
    3.1159    0.1128   -0.2436 C   0  0  0  0  0  0  0  0  0  0  0  0
    4.3518   -0.4926    0.0030 C   0  0  0  0  0  0  0  0  0  0  0  0
    4.7650   -1.5813   -0.7698 C   0  0  0  0  0  0  0  0  0  0  0  0
    3.9428   -2.0661   -1.7907 C   0  0  0  0  0  0  0  0  0  0  0  0
    2.7058   -1.4637   -2.0407 C   0  0  0  0  0  0  0  0  0  0  0  0
   -2.6719   -1.2259   -1.3426 N   0  0  0  0  0  0  0  0  0  0  0  0
   -4.0944   -1.0534   -1.0716 C   0  0  0  0  0  0  0  0  0  0  0  0
   -4.1954   -0.8855    0.4531 C   0  0  0  0  0  0  0  0  0  0  0  0
   -2.8260   -1.0157    0.9069 N   0  0  0  0  0  0  0  0  0  0  0  0
  1  2  1  0
  1 20  1  0
  1 17  2  0
  2  3  1  0
  3 10  1  0
  3  4  1  0
  4  9  1  0
  4  5  2  0
  5  6  1  0
  6  7  2  0
  7  8  1  0
  8  9  2  0
 10 11  1  0
 11 16  1  0
 11 12  2  0
 12 13  1  0
 13 14  2  0
 14 15  1  0
 15 16  2  0
 17 18  1  0
 18 19  1  0
 19 20  1  0
M  END
$$$$
