Clc1cc(c2cc(Cl)c(N)cc2)ccc1N
     RDKit          3D

 16 17  0  0  0  0  0  0  0  0999 V2000
    3.6091   -2.8051   -0.4266 Cl  0  0  0  0  0  0  0  0  0  0  0  0
    2.8236   -1.2504   -0.1770 C   0  0  0  0  0  0  0  0  0  0  0  0
    1.4243   -1.2033   -0.1893 C   0  0  0  0  0  0  0  0  0  0  0  0
    0.7435    0.0121    0.0001 C   0  0  0  0  0  0  0  0  0  0  0  0
   -0.7413    0.0563   -0.0136 C   0  0  0  0  0  0  0  0  0  0  0  0
   -1.4923   -0.9520    0.6159 C   0  0  0  0  0  0  0  0  0  0  0  0
   -2.8920   -0.9153    0.6056 C   0  0  0  0  0  0  0  0  0  0  0  0
   -3.7672   -2.2073    1.4185 Cl  0  0  0  0  0  0  0  0  0  0  0  0
   -3.5628    0.1413   -0.0419 C   0  0  0  0  0  0  0  0  0  0  0  0
   -4.9940    0.2090   -0.0723 N   0  0  0  0  0  0  0  0  0  0  0  0
   -2.8143    1.1467   -0.6693 C   0  0  0  0  0  0  0  0  0  0  0  0
   -1.4183    1.1066   -0.6559 C   0  0  0  0  0  0  0  0  0  0  0  0
    1.4906    1.1846    0.2025 C   0  0  0  0  0  0  0  0  0  0  0  0
    2.8865    1.1422    0.2164 C   0  0  0  0  0  0  0  0  0  0  0  0
    3.5651   -0.0698    0.0278 C   0  0  0  0  0  0  0  0  0  0  0  0
    4.9980   -0.0826    0.0473 N   0  0  0  0  0  0  0  0  0  0  0  0
  1  2  1  0
  2  3  2  0
  2 15  1  0
  3  4  1  0
  4 13  2  0
  4  5  1  0
  5 12  1  0
  5  6  2  0
  6  7  1  0
  7  9  2  0
  7  8  1  0
  9 11  1  0
  9 10  1  0
 11 12  2  0
 13 14  1  0
 14 15  2  0
 15 16  1  0
M  END
$$$$
