Nc1ccc(c3nc2ccc(C)cc2s3)cc1
     RDKit          3D

 17 19  0  0  0  0  0  0  0  0999 V2000
   -6.1517   -0.4284   -0.1070 N   0  0  0  0  0  0  0  0  0  0  0  0
   -4.7252   -0.3533   -0.0415 C   0  0  0  0  0  0  0  0  0  0  0  0
   -4.0329    0.5950   -0.8051 C   0  0  0  0  0  0  0  0  0  0  0  0
   -2.6382    0.6693   -0.7418 C   0  0  0  0  0  0  0  0  0  0  0  0
   -1.9129   -0.2052    0.0876 C   0  0  0  0  0  0  0  0  0  0  0  0
   -0.4353   -0.1187    0.1479 C   0  0  0  0  0  0  0  0  0  0  0  0
    0.2859    0.7802   -0.5707 N   0  0  0  0  0  0  0  0  0  0  0  0
    1.6166    0.6508   -0.3354 C   0  0  0  0  0  0  0  0  0  0  0  0
    2.6027    1.4330   -0.9364 C   0  0  0  0  0  0  0  0  0  0  0  0
    3.9485    1.1942   -0.6092 C   0  0  0  0  0  0  0  0  0  0  0  0
    4.2967    0.1879    0.3224 C   0  0  0  0  0  0  0  0  0  0  0  0
    5.7384   -0.0833    0.6329 C   0  0  0  0  0  0  0  0  0  0  0  0
    3.2874   -0.6028    0.9073 C   0  0  0  0  0  0  0  0  0  0  0  0
    1.9639   -0.3426    0.5634 C   0  0  0  0  0  0  0  0  0  0  0  0
    0.5704   -1.1048    1.0991 S   0  0  0  0  0  0  0  0  0  0  0  0
   -2.6151   -1.1553    0.8519 C   0  0  0  0  0  0  0  0  0  0  0  0
   -4.0099   -1.2274    0.7867 C   0  0  0  0  0  0  0  0  0  0  0  0
  1  2  1  0
  2 17  2  0
  2  3  1  0
  3  4  2  0
  4  5  1  0
  5 16  2  0
  5  6  1  0
  6  7  2  0
  6 15  1  0
  7  8  1  0
  8  9  2  0
  8 14  1  0
  9 10  1  0
 10 11  2  0
 11 12  1  0
 11 13  1  0
 13 14  2  0
 14 15  1  0
 16 17  1  0
M  END
$$$$
