Oc1ccc(c2ccccc2)cc1
     RDKit          3D

 13 14  0  0  0  0  0  0  0  0999 V2000
    4.6485   -0.6594    0.2353 O   0  0  0  0  0  0  0  0  0  0  0  0
    3.2707   -0.4652    0.1678 C   0  0  0  0  0  0  0  0  0  0  0  0
    2.6724    0.6336    0.7971 C   0  0  0  0  0  0  0  0  0  0  0  0
    1.2886    0.8190    0.7225 C   0  0  0  0  0  0  0  0  0  0  0  0
    0.4830   -0.0943    0.0170 C   0  0  0  0  0  0  0  0  0  0  0  0
   -0.9875    0.1006   -0.0631 C   0  0  0  0  0  0  0  0  0  0  0  0
   -1.5302    1.3866   -0.2479 C   0  0  0  0  0  0  0  0  0  0  0  0
   -2.9148    1.5670   -0.3233 C   0  0  0  0  0  0  0  0  0  0  0  0
   -3.7717    0.4697   -0.2146 C   0  0  0  0  0  0  0  0  0  0  0  0
   -3.2459   -0.8110   -0.0307 C   0  0  0  0  0  0  0  0  0  0  0  0
   -1.8622   -0.9975    0.0446 C   0  0  0  0  0  0  0  0  0  0  0  0
    1.0942   -1.1954   -0.6114 C   0  0  0  0  0  0  0  0  0  0  0  0
    2.4785   -1.3769   -0.5353 C   0  0  0  0  0  0  0  0  0  0  0  0
  1  2  1  0
  2 13  2  0
  2  3  1  0
  3  4  2  0
  4  5  1  0
  5 12  2  0
  5  6  1  0
  6 11  1  0
  6  7  2  0
  7  8  1  0
  8  9  2  0
  9 10  1  0
 10 11  2  0
 12 13  1  0
M  END
$$$$
