O=C(c1ccccc1)CC
     RDKit          3D

 10 10  0  0  0  0  0  0  0  0999 V2000
    1.2262   -2.1430    0.6543 O   0  0  0  0  0  0  0  0  0  0  0  0
    0.9939   -1.0746    0.0250 C   0  0  0  0  0  0  0  0  0  0  0  0
   -0.3744   -0.4846    0.0669 C   0  0  0  0  0  0  0  0  0  0  0  0
   -0.6563    0.7809   -0.4896 C   0  0  0  0  0  0  0  0  0  0  0  0
   -1.9497    1.3098   -0.4337 C   0  0  0  0  0  0  0  0  0  0  0  0
   -2.9776    0.5891    0.1756 C   0  0  0  0  0  0  0  0  0  0  0  0
   -2.7149   -0.6630    0.7326 C   0  0  0  0  0  0  0  0  0  0  0  0
   -1.4242   -1.1976    0.6808 C   0  0  0  0  0  0  0  0  0  0  0  0
    2.1368   -0.4331   -0.7159 C   0  0  0  0  0  0  0  0  0  0  0  0
    2.8297    0.6140    0.1508 C   0  0  0  0  0  0  0  0  0  0  0  0
  1  2  2  0
  2  9  1  0
  2  3  1  0
  3  8  2  0
  3  4  1  0
  4  5  2  0
  5  6  1  0
  6  7  2  0
  7  8  1  0
  9 10  1  0
M  END
$$$$
