Cc1nc(ncnc2)c2nc1
     RDKit          3D

 11 12  0  0  0  0  0  0  0  0999 V2000
   -2.9224    0.7342    0.5799 C   0  0  0  0  0  0  0  0  0  0  0  0
   -1.5626    0.2198    0.2306 C   0  0  0  0  0  0  0  0  0  0  0  0
   -0.4598    0.9765    0.4875 N   0  0  0  0  0  0  0  0  0  0  0  0
    0.7845    0.5286    0.1783 C   0  0  0  0  0  0  0  0  0  0  0  0
    1.8785    1.2897    0.4380 N   0  0  0  0  0  0  0  0  0  0  0  0
    3.1241    0.8398    0.1277 C   0  0  0  0  0  0  0  0  0  0  0  0
    3.2877   -0.3824   -0.4483 N   0  0  0  0  0  0  0  0  0  0  0  0
    2.2198   -1.1769   -0.7255 C   0  0  0  0  0  0  0  0  0  0  0  0
    0.9349   -0.7344   -0.4154 C   0  0  0  0  0  0  0  0  0  0  0  0
   -0.1625   -1.4923   -0.6733 N   0  0  0  0  0  0  0  0  0  0  0  0
   -1.4079   -1.0425   -0.3632 C   0  0  0  0  0  0  0  0  0  0  0  0
  1  2  1  0
  2 11  2  0
  2  3  1  0
  3  4  2  0
  4  9  1  0
  4  5  1  0
  5  6  2  0
  6  7  1  0
  7  8  2  0
  8  9  1  0
  9 10  2  0
 10 11  1  0
M  END
$$$$
