c1cc(OCC)ccc1C(=O)OCCN(CC)CC
     RDKit          3D

 19 19  0  0  0  0  0  0  0  0999 V2000
    1.6336   -0.2729   -0.3670 C   0  0  0  0  0  0  0  0  0  0  0  0
    2.8282   -0.5256   -1.0472 C   0  0  0  0  0  0  0  0  0  0  0  0
    4.0181    0.0980   -0.6565 C   0  0  0  0  0  0  0  0  0  0  0  0
    5.1868   -0.1946   -1.3791 O   0  0  0  0  0  0  0  0  0  0  0  0
    6.4995    0.2657   -1.0578 C   0  0  0  0  0  0  0  0  0  0  0  0
    7.0702   -0.5083    0.1255 C   0  0  0  0  0  0  0  0  0  0  0  0
    3.9962    0.9930    0.4303 C   0  0  0  0  0  0  0  0  0  0  0  0
    2.8018    1.2477    1.1113 C   0  0  0  0  0  0  0  0  0  0  0  0
    1.6080    0.6162    0.7205 C   0  0  0  0  0  0  0  0  0  0  0  0
    0.3424    0.8789    1.4399 C   0  0  0  0  0  0  0  0  0  0  0  0
    0.3178    1.6910    2.4059 O   0  0  0  0  0  0  0  0  0  0  0  0
   -0.8286    0.2231    1.0466 O   0  0  0  0  0  0  0  0  0  0  0  0
   -2.0848    0.4362    1.6831 C   0  0  0  0  0  0  0  0  0  0  0  0
   -3.1571   -0.4315    1.0210 C   0  0  0  0  0  0  0  0  0  0  0  0
   -3.1345   -0.3051   -0.4538 N   0  0  0  0  0  0  0  0  0  0  0  0
   -3.5821    0.9989   -0.9996 C   0  0  0  0  0  0  0  0  0  0  0  0
   -5.0950    1.2248   -0.9363 C   0  0  0  0  0  0  0  0  0  0  0  0
   -3.6240   -1.4913   -1.1976 C   0  0  0  0  0  0  0  0  0  0  0  0
   -4.8913   -2.1354   -0.6116 C   0  0  0  0  0  0  0  0  0  0  0  0
  1  2  2  0
  1  9  1  0
  2  3  1  0
  3  7  2  0
  3  4  1  0
  4  5  1  0
  5  6  1  0
  7  8  1  0
  8  9  2  0
  9 10  1  0
 10 11  2  0
 10 12  1  0
 12 13  1  0
 13 14  1  0
 14 15  1  0
 15 16  1  0
 15 18  1  0
 16 17  1  0
 18 19  1  0
M  END
$$$$
