Oc1ccc(C(OCCCC)=O)cc1
     RDKit          3D

 14 14  0  0  0  0  0  0  0  0999 V2000
    5.9567   -0.8523   -0.0582 O   0  0  0  0  0  0  0  0  0  0  0  0
    4.6137   -0.4908    0.0204 C   0  0  0  0  0  0  0  0  0  0  0  0
    4.1050    0.0203    1.2178 C   0  0  0  0  0  0  0  0  0  0  0  0
    2.7590    0.3874    1.3117 C   0  0  0  0  0  0  0  0  0  0  0  0
    1.9030    0.2470    0.2035 C   0  0  0  0  0  0  0  0  0  0  0  0
    0.4776    0.6325    0.2961 C   0  0  0  0  0  0  0  0  0  0  0  0
   -0.3559    0.4910   -0.8211 O   0  0  0  0  0  0  0  0  0  0  0  0
   -1.7517    0.7843   -0.8049 C   0  0  0  0  0  0  0  0  0  0  0  0
   -2.5276   -0.3433   -0.1126 C   0  0  0  0  0  0  0  0  0  0  0  0
   -4.0259   -0.0330    0.0232 C   0  0  0  0  0  0  0  0  0  0  0  0
   -4.7619   -0.0736   -1.3157 C   0  0  0  0  0  0  0  0  0  0  0  0
    0.0155    1.0932    1.3765 O   0  0  0  0  0  0  0  0  0  0  0  0
    2.4224   -0.2683   -0.9976 C   0  0  0  0  0  0  0  0  0  0  0  0
    3.7689   -0.6343   -1.0875 C   0  0  0  0  0  0  0  0  0  0  0  0
  1  2  1  0
  2 14  2  0
  2  3  1  0
  3  4  2  0
  4  5  1  0
  5 13  2  0
  5  6  1  0
  6 12  2  0
  6  7  1  0
  7  8  1  0
  8  9  1  0
  9 10  1  0
 10 11  1  0
 13 14  1  0
M  END
$$$$
