
     RDKit          3D

 21 23  0  0  0  0  0  0  0  0999 V2000
   -1.7203   -1.3947   -1.3243 O   0  0  0  0  0  0  0  0  0  0  0  0
   -1.9382   -0.4481   -0.5193 C   0  0  0  0  0  0  0  0  0  0  0  0
   -3.2944   -0.0369   -0.2545 N   0  0  0  0  0  0  0  0  0  0  0  0
   -4.4040   -0.9544   -0.5508 C   0  0  0  0  0  0  0  0  0  0  0  0
   -5.5239   -0.7893    0.4817 C   0  0  0  0  0  0  0  0  0  0  0  0
   -5.9361    0.6800    0.6142 C   0  0  0  0  0  0  0  0  0  0  0  0
   -4.7273    1.5513    0.9691 C   0  0  0  0  0  0  0  0  0  0  0  0
   -3.6157    1.3867   -0.0707 C   0  0  0  0  0  0  0  0  0  0  0  0
   -0.8115    0.1699    0.2161 C   0  0  0  0  0  0  0  0  0  0  0  0
    0.4577    0.2256   -0.2121 C   0  0  0  0  0  0  0  0  0  0  0  0
    0.8985   -0.1767   -1.5661 C   0  0  0  0  0  0  0  0  0  0  0  0
    2.1786   -0.3980   -1.8983 C   0  0  0  0  0  0  0  0  0  0  0  0
    3.3101   -0.4361   -0.9462 C   0  0  0  0  0  0  0  0  0  0  0  0
    4.5273    0.1816   -1.3069 C   0  0  0  0  0  0  0  0  0  0  0  0
    5.5931    0.1014   -0.4151 C   0  0  0  0  0  0  0  0  0  0  0  0
    6.8621    0.6326   -0.5412 O   0  0  0  0  0  0  0  0  0  0  0  0
    7.6076    0.2830    0.6336 C   0  0  0  0  0  0  0  0  0  0  0  0
    6.6982   -0.4789    1.4401 O   0  0  0  0  0  0  0  0  0  0  0  0
    5.4958   -0.5612    0.7647 C   0  0  0  0  0  0  0  0  0  0  0  0
    4.3265   -1.2070    1.1524 C   0  0  0  0  0  0  0  0  0  0  0  0
    3.2249   -1.1511    0.2794 C   0  0  0  0  0  0  0  0  0  0  0  0
  1  2  2  0
  2  9  1  0
  2  3  1  0
  3  8  1  0
  3  4  1  0
  4  5  1  0
  5  6  1  0
  6  7  1  0
  7  8  1  0
  9 10  2  0
 10 11  1  0
 11 12  2  0
 12 13  1  0
 13 21  1  0
 13 14  2  0
 14 15  1  0
 15 19  2  0
 15 16  1  0
 16 17  1  0
 17 18  1  0
 18 19  1  0
 19 20  1  0
 20 21  2  0
M  END
$$$$
