O=C(O)COc(ccc(Cl)c1)c1C
     RDKit          3D

 13 13  0  0  0  0  0  0  0  0999 V2000
    3.8523   -0.8782   -1.1832 O   0  0  0  0  0  0  0  0  0  0  0  0
    3.4043   -0.0188   -0.3781 C   0  0  0  0  0  0  0  0  0  0  0  0
    4.1157    0.2911    0.7765 O   0  0  0  0  0  0  0  0  0  0  0  0
    2.0854    0.6285   -0.6343 C   0  0  0  0  0  0  0  0  0  0  0  0
    1.0535   -0.1750   -0.0703 O   0  0  0  0  0  0  0  0  0  0  0  0
   -0.3160    0.1341   -0.1201 C   0  0  0  0  0  0  0  0  0  0  0  0
   -0.7935    1.2999   -0.7517 C   0  0  0  0  0  0  0  0  0  0  0  0
   -2.1621    1.5770   -0.7831 C   0  0  0  0  0  0  0  0  0  0  0  0
   -3.0697    0.6990   -0.1875 C   0  0  0  0  0  0  0  0  0  0  0  0
   -4.7876    1.0517   -0.2297 Cl  0  0  0  0  0  0  0  0  0  0  0  0
   -2.6090   -0.4605    0.4420 C   0  0  0  0  0  0  0  0  0  0  0  0
   -1.2347   -0.7502    0.4802 C   0  0  0  0  0  0  0  0  0  0  0  0
   -0.7465   -1.9991    1.1590 C   0  0  0  0  0  0  0  0  0  0  0  0
  1  2  2  0
  2  4  1  0
  2  3  1  0
  4  5  1  0
  5  6  1  0
  6  7  2  0
  6 12  1  0
  7  8  1  0
  8  9  2  0
  9 11  1  0
  9 10  1  0
 11 12  2  0
 12 13  1  0
M  END
$$$$
