CCCC(O)C(CC)CO
     RDKit          3D

 10  9  0  0  1  0  0  0  0  0999 V2000
    3.3923    0.0989   -1.1502 C   0  0  0  0  0  0  0  0  0  0  0  0
    2.7940    0.8760    0.0216 C   0  0  0  0  0  0  0  0  0  0  0  0
    1.5445    0.2042    0.6180 C   0  0  0  0  0  0  0  0  0  0  0  0
    0.3247    0.2239   -0.3306 C   0  0  1  0  0  0  0  0  0  0  0  0
    0.4680   -0.7884   -1.2965 O   0  0  0  0  0  0  0  0  0  0  0  0
   -1.0275    0.0581    0.4289 C   0  0  1  0  0  0  0  0  0  0  0  0
   -2.2135    0.3088   -0.5395 C   0  0  0  0  0  0  0  0  0  0  0  0
   -3.5091    0.6834    0.1845 C   0  0  0  0  0  0  0  0  0  0  0  0
   -1.1563   -1.3261    1.1112 C   0  0  0  0  0  0  0  0  0  0  0  0
   -0.3252   -1.3961    2.2368 O   0  0  0  0  0  0  0  0  0  0  0  0
  1  2  1  0
  2  3  1  0
  4  3  1  1
  4  6  1  0
  4  5  1  0
  6  7  1  6
  6  9  1  0
  7  8  1  0
  9 10  1  0
M  END
$$$$
