c12ccccc1scn2
     RDKit          3D

  9 10  0  0  0  0  0  0  0  0999 V2000
    0.6780   -0.4938   -0.1699 C   0  0  0  0  0  0  0  0  0  0  0  0
   -0.3717   -1.3923   -0.3697 C   0  0  0  0  0  0  0  0  0  0  0  0
   -1.6903   -0.9424   -0.1812 C   0  0  0  0  0  0  0  0  0  0  0  0
   -1.9424    0.3905    0.2018 C   0  0  0  0  0  0  0  0  0  0  0  0
   -0.8782    1.2850    0.3997 C   0  0  0  0  0  0  0  0  0  0  0  0
    0.4177    0.8135    0.2064 C   0  0  0  0  0  0  0  0  0  0  0  0
    1.8711    1.6345    0.3652 S   0  0  0  0  0  0  0  0  0  0  0  0
    2.7804    0.2698   -0.0582 C   0  0  0  0  0  0  0  0  0  0  0  0
    1.9919   -0.8019   -0.3187 N   0  0  0  0  0  0  0  0  0  0  0  0
  1  9  1  0
  1  6  1  0
  1  2  2  0
  2  3  1  0
  3  4  2  0
  4  5  1  0
  5  6  2  0
  6  7  1  0
  7  8  1  0
  8  9  2  0
M  END
$$$$
