c12ccccc1[nH]nn2
     RDKit          3D

  9 10  0  0  0  0  0  0  0  0999 V2000
    0.5874    0.9162   -0.0249 C   0  0  0  0  0  0  0  0  0  0  0  0
   -0.6783    1.4831   -0.1395 C   0  0  0  0  0  0  0  0  0  0  0  0
   -1.7812    0.6049   -0.1484 C   0  0  0  0  0  0  0  0  0  0  0  0
   -1.5866   -0.7948   -0.0439 C   0  0  0  0  0  0  0  0  0  0  0  0
   -0.2873   -1.3289    0.0705 C   0  0  0  0  0  0  0  0  0  0  0  0
    0.7714   -0.4259    0.0752 C   0  0  0  0  0  0  0  0  0  0  0  0
    2.0870   -0.6505    0.1701 N   0  0  0  0  0  0  0  0  0  0  0  0
    2.6804    0.5390    0.1274 N   0  0  0  0  0  0  0  0  0  0  0  0
    1.7874    1.5215    0.0080 N   0  0  0  0  0  0  0  0  0  0  0  0
  1  9  1  0
  1  6  1  0
  1  2  2  0
  2  3  1  0
  3  4  2  0
  4  5  1  0
  5  6  2  0
  6  7  1  0
  7  8  1  0
  8  9  2  0
M  END
$$$$
