Clc(cccc1)c1N
     RDKit          3D

  8  8  0  0  0  0  0  0  0  0999 V2000
    1.6100    2.4271   -0.0772 Cl  0  0  0  0  0  0  0  0  0  0  0  0
    0.4437    1.1104   -0.0373 C   0  0  0  0  0  0  0  0  0  0  0  0
   -0.9205    1.4281   -0.0578 C   0  0  0  0  0  0  0  0  0  0  0  0
   -1.8816    0.4149   -0.0275 C   0  0  0  0  0  0  0  0  0  0  0  0
   -1.4853   -0.9228    0.0236 C   0  0  0  0  0  0  0  0  0  0  0  0
   -0.1269   -1.2501    0.0444 C   0  0  0  0  0  0  0  0  0  0  0  0
    0.8488   -0.2407    0.0144 C   0  0  0  0  0  0  0  0  0  0  0  0
    2.2350   -0.6031    0.0367 N   0  0  0  0  0  0  0  0  0  0  0  0
  1  2  1  0
  2  3  2  0
  2  7  1  0
  3  4  1  0
  4  5  2  0
  5  6  1  0
  6  7  2  0
  7  8  1  0
M  END
$$$$
