Nc(cccc1)c1O
     RDKit          3D

  8  8  0  0  0  0  0  0  0  0999 V2000
   -2.0534    0.8181    0.2275 N   0  0  0  0  0  0  0  0  0  0  0  0
   -0.6972    0.3809    0.0608 C   0  0  0  0  0  0  0  0  0  0  0  0
    0.2826    1.3348   -0.2628 C   0  0  0  0  0  0  0  0  0  0  0  0
    1.6158    0.9568   -0.4350 C   0  0  0  0  0  0  0  0  0  0  0  0
    1.9875   -0.3789   -0.2862 C   0  0  0  0  0  0  0  0  0  0  0  0
    1.0267   -1.3394    0.0350 C   0  0  0  0  0  0  0  0  0  0  0  0
   -0.3153   -0.9770    0.2112 C   0  0  0  0  0  0  0  0  0  0  0  0
   -1.2228   -1.9892    0.5315 O   0  0  0  0  0  0  0  0  0  0  0  0
  1  2  1  0
  2  3  2  0
  2  7  1  0
  3  4  1  0
  4  5  2  0
  5  6  1  0
  6  7  2  0
  7  8  1  0
M  END
$$$$
