Clc(cc(N)cc1)c1Cl
     RDKit          3D

  9  9  0  0  0  0  0  0  0  0999 V2000
   -2.5777    2.0622    0.6480 Cl  0  0  0  0  0  0  0  0  0  0  0  0
   -1.3835    0.8432    0.2233 C   0  0  0  0  0  0  0  0  0  0  0  0
   -0.0343    1.0869    0.5088 C   0  0  0  0  0  0  0  0  0  0  0  0
    0.9427    0.1354    0.1830 C   0  0  0  0  0  0  0  0  0  0  0  0
    2.3194    0.3878    0.4761 N   0  0  0  0  0  0  0  0  0  0  0  0
    0.5612   -1.0648   -0.4319 C   0  0  0  0  0  0  0  0  0  0  0  0
   -0.7843   -1.3113   -0.7182 C   0  0  0  0  0  0  0  0  0  0  0  0
   -1.7605   -0.3623   -0.3935 C   0  0  0  0  0  0  0  0  0  0  0  0
   -3.4432   -0.7079   -0.7692 Cl  0  0  0  0  0  0  0  0  0  0  0  0
  1  2  1  0
  2  3  2  0
  2  8  1  0
  3  4  1  0
  4  6  2  0
  4  5  1  0
  6  7  1  0
  7  8  2  0
  8  9  1  0
M  END
$$$$
