Clc(cc(Cl)c(O)c1)c1Cl
     RDKit          3D

 10 10  0  0  0  0  0  0  0  0999 V2000
    3.2712    0.8222   -0.3614 Cl  0  0  0  0  0  0  0  0  0  0  0  0
    1.5716    0.4098   -0.1787 C   0  0  0  0  0  0  0  0  0  0  0  0
    0.6035    1.3733   -0.4842 C   0  0  0  0  0  0  0  0  0  0  0  0
   -0.7572    1.0763   -0.3492 C   0  0  0  0  0  0  0  0  0  0  0  0
   -1.9524    2.3032   -0.7392 Cl  0  0  0  0  0  0  0  0  0  0  0  0
   -1.1566   -0.1923    0.0941 C   0  0  0  0  0  0  0  0  0  0  0  0
   -2.5121   -0.4883    0.2286 O   0  0  0  0  0  0  0  0  0  0  0  0
   -0.1876   -1.1581    0.4004 C   0  0  0  0  0  0  0  0  0  0  0  0
    1.1740   -0.8626    0.2660 C   0  0  0  0  0  0  0  0  0  0  0  0
    2.3578   -2.1018    0.6604 Cl  0  0  0  0  0  0  0  0  0  0  0  0
  1  2  1  0
  2  3  2  0
  2  9  1  0
  3  4  1  0
  4  6  2  0
  4  5  1  0
  6  8  1  0
  6  7  1  0
  8  9  2  0
  9 10  1  0
M  END
$$$$
