C1(c2ccccc2)CO1
     RDKit          3D

  9 10  0  0  1  0  0  0  0  0999 V2000
   -1.7040    0.1129    0.6806 C   0  0  1  0  0  0  0  0  0  0  0  0
   -0.2528   -0.0000    0.3160 C   0  0  0  0  0  0  0  0  0  0  0  0
    0.4571   -1.1748    0.6095 C   0  0  0  0  0  0  0  0  0  0  0  0
    1.8154   -1.2735    0.2910 C   0  0  0  0  0  0  0  0  0  0  0  0
    2.4733   -0.1980   -0.3127 C   0  0  0  0  0  0  0  0  0  0  0  0
    1.7749    0.9796   -0.5952 C   0  0  0  0  0  0  0  0  0  0  0  0
    0.4167    1.0820   -0.2780 C   0  0  0  0  0  0  0  0  0  0  0  0
   -2.6472    0.4148   -0.4222 C   0  0  0  0  0  0  0  0  0  0  0  0
   -2.4635   -0.8962    0.0545 O   0  0  0  0  0  0  0  0  0  0  0  0
  1  2  1  6
  1  8  1  0
  1  9  1  0
  2  7  1  0
  2  3  2  0
  3  4  1  0
  4  5  2  0
  5  6  1  0
  6  7  2  0
  8  9  1  0
M  END
$$$$
