ClC(CCl)CCl
     RDKit          3D

  6  5  0  0  0  0  0  0  0  0999 V2000
   -0.0815   -1.5965    1.4467 Cl  0  0  0  0  0  0  0  0  0  0  0  0
    0.0748   -0.0352    0.5855 C   0  0  0  0  0  0  0  0  0  0  0  0
    1.1518   -0.1218   -0.5038 C   0  0  0  0  0  0  0  0  0  0  0  0
    2.7696   -0.3341    0.2178 Cl  0  0  0  0  0  0  0  0  0  0  0  0
   -1.2834    0.3980    0.0158 C   0  0  0  0  0  0  0  0  0  0  0  0
   -1.9291   -0.7648   -1.1789 Cl  0  0  0  0  0  0  0  0  0  0  0  0
  1  2  1  0
  2  5  1  0
  2  3  1  0
  3  4  1  0
  5  6  1  0
M  END
$$$$
