O=C(OC)C=C
     RDKit          3D

  6  5  0  0  0  0  0  0  0  0999 V2000
    0.6497   -1.3104   -1.5414 O   0  0  0  0  0  0  0  0  0  0  0  0
    0.0043   -0.5650   -0.7555 C   0  0  0  0  0  0  0  0  0  0  0  0
    0.6333    0.5158   -0.1275 O   0  0  0  0  0  0  0  0  0  0  0  0
    2.0052    0.8299   -0.3337 C   0  0  0  0  0  0  0  0  0  0  0  0
   -1.4174   -0.8463   -0.5077 C   0  0  0  0  0  0  0  0  0  0  0  0
   -2.1563   -0.0998    0.3096 C   0  0  0  0  0  0  0  0  0  0  0  0
  1  2  2  0
  2  5  1  0
  2  3  1  0
  3  4  1  0
  5  6  2  0
M  END
$$$$
