O=C1CCCO1
     RDKit          3D

  6  6  0  0  0  0  0  0  0  0999 V2000
    2.3565   -1.2468    0.0638 O   0  0  0  0  0  0  0  0  0  0  0  0
    1.2124   -0.7339   -0.0457 C   0  0  0  0  0  0  0  0  0  0  0  0
    0.7535    0.4341    0.7285 C   0  0  0  0  0  0  0  0  0  0  0  0
   -0.6788    0.6367    0.2176 C   0  0  0  0  0  0  0  0  0  0  0  0
   -0.9345   -0.4589   -0.8359 C   0  0  0  0  0  0  0  0  0  0  0  0
    0.2585   -1.2163   -0.9109 O   0  0  0  0  0  0  0  0  0  0  0  0
  1  2  2  0
  2  3  1  0
  2  6  1  0
  3  4  1  0
  4  5  1  0
  5  6  1  0
M  END
$$$$
