Oc1c(OC)cc(CC=C)cc1
     RDKit          3D

 12 12  0  0  0  0  0  0  0  0999 V2000
   -2.7193   -2.1683    1.0098 O   0  0  0  0  0  0  0  0  0  0  0  0
   -1.5362   -1.5609    0.5921 C   0  0  0  0  0  0  0  0  0  0  0  0
   -1.5830   -0.2999   -0.0197 C   0  0  0  0  0  0  0  0  0  0  0  0
   -2.8333    0.3151   -0.1898 O   0  0  0  0  0  0  0  0  0  0  0  0
   -3.0287    1.5910   -0.7911 C   0  0  0  0  0  0  0  0  0  0  0  0
   -0.3834    0.3081   -0.4405 C   0  0  0  0  0  0  0  0  0  0  0  0
    0.8481   -0.3412   -0.2568 C   0  0  0  0  0  0  0  0  0  0  0  0
    2.1276    0.3287   -0.6836 C   0  0  0  0  0  0  0  0  0  0  0  0
    2.5557    1.3567    0.3261 C   0  0  0  0  0  0  0  0  0  0  0  0
    3.0099    1.0092    1.5339 C   0  0  0  0  0  0  0  0  0  0  0  0
    0.8789   -1.5977    0.3657 C   0  0  0  0  0  0  0  0  0  0  0  0
   -0.3066   -2.2047    0.7839 C   0  0  0  0  0  0  0  0  0  0  0  0
  1  2  1  0
  2 12  2  0
  2  3  1  0
  3  6  2  0
  3  4  1  0
  4  5  1  0
  6  7  1  0
  7  8  1  0
  7 11  2  0
  8  9  1  0
  9 10  2  0
 11 12  1  0
M  END
$$$$
