S=C(SSC(N(CC)CC)=S)N(CC)CC
     RDKit          3D

 16 15  0  0  0  0  0  0  0  0999 V2000
    2.6847   -2.1271    2.2875 S   0  0  0  0  0  0  0  0  0  0  0  0
    1.8375   -1.3203    1.1384 C   0  0  0  0  0  0  0  0  0  0  0  0
    0.3610   -2.1007    0.4804 S   0  0  0  0  0  0  0  0  0  0  0  0
   -0.8906   -1.3421    2.0343 S   0  0  0  0  0  0  0  0  0  0  0  0
   -1.3881    0.0967    1.0814 C   0  0  0  0  0  0  0  0  0  0  0  0
   -2.5292    0.0514    0.1918 N   0  0  0  0  0  0  0  0  0  0  0  0
   -3.5942   -0.9436    0.3887 C   0  0  0  0  0  0  0  0  0  0  0  0
   -3.3430   -2.1921   -0.4517 C   0  0  0  0  0  0  0  0  0  0  0  0
   -2.6611    1.0105   -0.9162 C   0  0  0  0  0  0  0  0  0  0  0  0
   -3.4764    2.2288   -0.4899 C   0  0  0  0  0  0  0  0  0  0  0  0
   -0.5816    1.4987    1.3555 S   0  0  0  0  0  0  0  0  0  0  0  0
    2.3216   -0.0715    0.5957 N   0  0  0  0  0  0  0  0  0  0  0  0
    2.0571    0.2807   -0.8082 C   0  0  0  0  0  0  0  0  0  0  0  0
    2.8105   -0.6508   -1.7539 C   0  0  0  0  0  0  0  0  0  0  0  0
    3.0652    0.8738    1.4420 C   0  0  0  0  0  0  0  0  0  0  0  0
    4.5647    0.7630    1.1881 C   0  0  0  0  0  0  0  0  0  0  0  0
  1  2  2  0
  2 12  1  0
  2  3  1  0
  3  4  1  0
  4  5  1  0
  5  6  1  0
  5 11  2  0
  6  7  1  0
  6  9  1  0
  7  8  1  0
  9 10  1  0
 12 13  1  0
 12 15  1  0
 13 14  1  0
 15 16  1  0
M  END
$$$$
