FC(F)(c1cc(N)ccc1)F
     RDKit          3D

 11 11  0  0  0  0  0  0  0  0999 V2000
   -3.4415    0.1621    0.0567 F   0  0  0  0  0  0  0  0  0  0  0  0
   -2.4089   -0.7582    0.1117 C   0  0  0  0  0  0  0  0  0  0  0  0
   -2.5499   -1.6422   -0.9426 F   0  0  0  0  0  0  0  0  0  0  0  0
   -1.0594   -0.0897    0.0290 C   0  0  0  0  0  0  0  0  0  0  0  0
    0.1031   -0.8790    0.0705 C   0  0  0  0  0  0  0  0  0  0  0  0
    1.3720   -0.2861   -0.0043 C   0  0  0  0  0  0  0  0  0  0  0  0
    2.5490   -1.0973    0.0387 N   0  0  0  0  0  0  0  0  0  0  0  0
    1.4799    1.1059   -0.1215 C   0  0  0  0  0  0  0  0  0  0  0  0
    0.3303    1.8978   -0.1635 C   0  0  0  0  0  0  0  0  0  0  0  0
   -0.9341    1.3070   -0.0889 C   0  0  0  0  0  0  0  0  0  0  0  0
   -2.5041   -1.4569    1.3015 F   0  0  0  0  0  0  0  0  0  0  0  0
  1  2  1  0
  2  4  1  0
  2  3  1  0
  2 11  1  0
  4 10  2  0
  4  5  1  0
  5  6  2  0
  6  8  1  0
  6  7  1  0
  8  9  2  0
  9 10  1  0
M  END
$$$$
