CC(C)(c1ccc(O)cc1)C
     RDKit          3D

 11 11  0  0  0  0  0  0  0  0999 V2000
   -1.9125    1.4983    0.4277 C   0  0  0  0  0  0  0  0  0  0  0  0
   -1.3539    0.0915    0.1045 C   0  0  0  0  0  0  0  0  0  0  0  0
   -1.9696   -0.3602   -1.2377 C   0  0  0  0  0  0  0  0  0  0  0  0
    0.1851    0.0608    0.0007 C   0  0  0  0  0  0  0  0  0  0  0  0
    0.9887    1.2122    0.1853 C   0  0  0  0  0  0  0  0  0  0  0  0
    2.3810    1.1400    0.0824 C   0  0  0  0  0  0  0  0  0  0  0  0
    3.0064   -0.0731   -0.2054 C   0  0  0  0  0  0  0  0  0  0  0  0
    4.3950   -0.1263   -0.3042 O   0  0  0  0  0  0  0  0  0  0  0  0
    2.2330   -1.2221   -0.3914 C   0  0  0  0  0  0  0  0  0  0  0  0
    0.8410   -1.1575   -0.2900 C   0  0  0  0  0  0  0  0  0  0  0  0
   -1.8135   -0.8644    1.2268 C   0  0  0  0  0  0  0  0  0  0  0  0
  1  2  1  0
  2 11  1  0
  2  3  1  0
  2  4  1  0
  4 10  2  0
  4  5  1  0
  5  6  2  0
  6  7  1  0
  7  9  2  0
  7  8  1  0
  9 10  1  0
M  END
$$$$
