CC(C)c1ccccc1
     RDKit          3D

  9  9  0  0  0  0  0  0  0  0999 V2000
   -2.1450   -0.1281   -0.9585 C   0  0  0  0  0  0  0  0  0  0  0  0
   -1.3022   -0.4538    0.2803 C   0  0  0  0  0  0  0  0  0  0  0  0
   -1.7812    0.3456    1.4980 C   0  0  0  0  0  0  0  0  0  0  0  0
    0.1727   -0.2155    0.0160 C   0  0  0  0  0  0  0  0  0  0  0  0
    1.0823   -1.2867    0.0878 C   0  0  0  0  0  0  0  0  0  0  0  0
    2.4436   -1.0776   -0.1541 C   0  0  0  0  0  0  0  0  0  0  0  0
    2.9115    0.1999   -0.4697 C   0  0  0  0  0  0  0  0  0  0  0  0
    2.0191    1.2717   -0.5442 C   0  0  0  0  0  0  0  0  0  0  0  0
    0.6570    1.0686   -0.3033 C   0  0  0  0  0  0  0  0  0  0  0  0
  1  2  1  0
  2  3  1  0
  2  4  1  0
  4  9  2  0
  4  5  1  0
  5  6  2  0
  6  7  1  0
  7  8  2  0
  8  9  1  0
M  END
$$$$
