NC(c1cccnc1)=O
     RDKit          3D

  9  9  0  0  0  0  0  0  0  0999 V2000
   -2.4955    0.9153   -0.3737 N   0  0  0  0  0  0  0  0  0  0  0  0
   -1.8005   -0.2555    0.0646 C   0  0  0  0  0  0  0  0  0  0  0  0
   -0.3186   -0.3212    0.0733 C   0  0  0  0  0  0  0  0  0  0  0  0
    0.4700    0.8425    0.1042 C   0  0  0  0  0  0  0  0  0  0  0  0
    1.8628    0.7464    0.1178 C   0  0  0  0  0  0  0  0  0  0  0  0
    2.4627   -0.5126    0.1062 C   0  0  0  0  0  0  0  0  0  0  0  0
    1.6931   -1.6318    0.0870 N   0  0  0  0  0  0  0  0  0  0  0  0
    0.3348   -1.5667    0.0743 C   0  0  0  0  0  0  0  0  0  0  0  0
   -2.4707   -1.2559    0.4381 O   0  0  0  0  0  0  0  0  0  0  0  0
  1  2  1  0
  2  3  1  0
  2  9  2  0
  3  4  2  0
  3  8  1  0
  4  5  1  0
  5  6  2  0
  6  7  1  0
  7  8  2  0
M  END
$$$$
