O=C(O)C(CCC)CCC
     RDKit          3D

 10  9  0  0  0  0  0  0  0  0999 V2000
    0.8207   -2.5823    0.2132 O   0  0  0  0  0  0  0  0  0  0  0  0
    0.3957   -1.6825   -0.5614 C   0  0  0  0  0  0  0  0  0  0  0  0
    0.3353   -1.9221   -1.9310 O   0  0  0  0  0  0  0  0  0  0  0  0
   -0.0861   -0.3650   -0.0118 C   0  0  0  0  0  0  0  0  0  0  0  0
   -1.3952   -0.5996    0.7830 C   0  0  0  0  0  0  0  0  0  0  0  0
   -2.2648    0.6633    0.9385 C   0  0  0  0  0  0  0  0  0  0  0  0
   -3.0389    1.0052   -0.3352 C   0  0  0  0  0  0  0  0  0  0  0  0
    1.0045    0.3039    0.8679 C   0  0  0  0  0  0  0  0  0  0  0  0
    2.0920    1.0372    0.0609 C   0  0  0  0  0  0  0  0  0  0  0  0
    3.0660    0.0935   -0.6427 C   0  0  0  0  0  0  0  0  0  0  0  0
  1  2  2  0
  2  4  1  0
  2  3  1  0
  4  8  1  0
  4  5  1  0
  5  6  1  0
  6  7  1  0
  8  9  1  0
  9 10  1  0
M  END
$$$$
