CC(c1ccc(C)cc1)C
     RDKit          3D

 10 10  0  0  0  0  0  0  0  0999 V2000
   -2.5059   -0.9987    1.0507 C   0  0  0  0  0  0  0  0  0  0  0  0
   -1.8889   -0.6401   -0.3063 C   0  0  0  0  0  0  0  0  0  0  0  0
   -0.4219   -0.2806   -0.1617 C   0  0  0  0  0  0  0  0  0  0  0  0
   -0.0162    0.8226    0.6131 C   0  0  0  0  0  0  0  0  0  0  0  0
    1.3387    1.1424    0.7374 C   0  0  0  0  0  0  0  0  0  0  0  0
    2.3124    0.3591    0.1016 C   0  0  0  0  0  0  0  0  0  0  0  0
    3.7631    0.7265    0.2034 C   0  0  0  0  0  0  0  0  0  0  0  0
    1.9127   -0.7299   -0.6860 C   0  0  0  0  0  0  0  0  0  0  0  0
    0.5581   -1.0512   -0.8115 C   0  0  0  0  0  0  0  0  0  0  0  0
   -2.6705    0.4910   -0.9851 C   0  0  0  0  0  0  0  0  0  0  0  0
  1  2  1  0
  2 10  1  0
  2  3  1  0
  3  9  2  0
  3  4  1  0
  4  5  2  0
  5  6  1  0
  6  7  1  0
  6  8  2  0
  8  9  1  0
M  END
$$$$
